/*---------------------------------------------------------------------------*\
| =========                 |                                                 |
| \\      /  F ield         | OpenFOAM: The Open Source CFD Toolbox           |
|  \\    /   O peration     | Version:  2206                                  |
|   \\  /    A nd           | Website:  www.openfoam.com                      |
|    \\/     M anipulation  |                                                 |
\*---------------------------------------------------------------------------*/
Build  : _76d719d1e6-20220624 OPENFOAM=2206 version=v2206
Arch   : "LSB;label=32;scalar=64"
Exec   : simpleFoam -parallel
Date   : Sep 24 2023
Time   : 14:07:35
Host   : gagan-Z97P-D3
PID    : 23549
I/O    : uncollated
Case   : /media/gagan/Tannu/NACA_0012_OpenFOAM/AOA_Fifteen_degree
nProcs : 4
Hosts  :
(
    (gagan-Z97P-D3 4)
)
Pstream initialized with:
    floatTransfer      : 0
    nProcsSimpleSum    : 0
    commsType          : nonBlocking
    polling iterations : 0
trapFpe: Floating point exception trapping enabled (FOAM_SIGFPE).
fileModificationChecking : Monitoring run-time modified files using timeStampMaster (fileModificationSkew 5, maxFileModificationPolls 20)
allowSystemOperations : Allowing user-supplied system call operations

// * * * * * * * * * * * * * * * * * * * * * * * * * * * * * * * * * * * * * //
Create time

Overriding OptimisationSwitches according to controlDict
    fileHandler (unregistered)
    fileModificationSkew 0;

    maxMasterFileBufferSize 1e+09;

    maxThreadFileBufferSize 1e+09;

    mpiBufferSize (unregistered)
Create mesh for time = 0


SIMPLE: convergence criteria
    field p	 tolerance 1e-06
    field U	 tolerance 1e-06
    field k	 tolerance 1e-05
    field omega	 tolerance 1e-05

Reading field p

Reading field U

Reading/calculating face flux field phi

Selecting incompressible transport model Newtonian
Selecting turbulence model type RAS
Selecting RAS turbulence model kOmegaSST
Selecting patchDistMethod meshWave
kOmegaSSTCoeffs
{
    alphaK1         0.85;
    alphaOmega2     0.856;
    gamma2          0.4403;
    alphaK2         1;
    alphaOmega1     0.5;
    gamma1          0.5532;
    F3              false;
    c1              10;
    b1              1;
    a1              0.31;
    beta1           0.075;
    beta2           0.0828;
    betaStar        0.09;
    decayControl    false;
    kInf            0;
    omegaInf        0;
}

No MRF models present

No finite volume options present

Starting time loop

forceCoeffs forceCoefficientMonitorOnLowerUpperTipInDefault:
    p: p
    U: U
    rho: rhoInf
    Freestream density (rhoInf) set to 1
    Not including porosity effects
    magUInf: 90
    lRef   : 1
    Aref   : 1
    rhoInf : 1
    Selecting all coefficients
    - Drag force: Cd
    - Drag force front: Cd(f)
    - Drag force rear: Cd(r)
    - Lift force: Cl
    - Lift force front: Cl(f)
    - Lift force rear: Cl(r)
    - Pitch moment: CmPitch
    - Roll moment: CmRoll
    - Yaw moment: CmYaw
    - Side force: Cs
    - Side force front: Cs(f)
    - Side force rear: Cs(r)


Time = 1

DILUPBiCGStab:  Solving for Ux, Initial residual = 1, Final residual = 0.002668268, No Iterations 2
DILUPBiCGStab:  Solving for Uz, Initial residual = 1, Final residual = 0.002221422, No Iterations 2
GAMG:  Solving for p, Initial residual = 1, Final residual = 0.2100756, No Iterations 100
GAMG:  Solving for p, Initial residual = 0.003033539, Final residual = 0.0001011493, No Iterations 100
GAMG:  Solving for p, Initial residual = 0.0009808643, Final residual = 5.498226e-05, No Iterations 100
time step continuity errors : sum local = 0.0002918512, global = 1.241399e-06, cumulative = 1.241399e-06
DILUPBiCGStab:  Solving for omega, Initial residual = 0.0008412772, Final residual = 2.988109e-05, No Iterations 1
DILUPBiCGStab:  Solving for k, Initial residual = 1, Final residual = 0.068207, No Iterations 1
ExecutionTime = 0.72 s  ClockTime = 1 s

forceCoeffs forceCoefficientMonitorOnLowerUpperTipInDefault write:
    Coefficient	Total	Pressure	Viscous	Internal
    Cd:	1.289531	0.01720113	1.27233	0
    Cd(f):	0.6447656	0.008600566	0.636165	0
    Cd(r):	0.6447656	0.008600566	0.636165	0
    Cl:	1.204104e-05	3.26733e-09	1.203777e-05	0
    Cl(f):	-1.89602e-06	-7.911697e-06	6.015677e-06	0
    Cl(r):	1.393706e-05	7.914964e-06	6.022092e-06	0
    CmPitch:	-7.916538e-06	-7.91333e-06	-3.207529e-09	0
    CmRoll:	3.300697e-21	1.991776e-22	3.101519e-21	0
    CmYaw:	-1.091933e-19	-1.188744e-19	9.681115e-21	0
    Cs:	-8.791511e-20	9.68429e-21	-9.75994e-20	0
    Cs(f):	-1.531508e-19	-1.140322e-19	-3.911858e-20	0
    Cs(r):	6.52357e-20	1.237165e-19	-5.848081e-20	0

    writing force and moment coefficient files.

Time = 2

DILUPBiCGStab:  Solving for Ux, Initial residual = 0.0907103, Final residual = 0.0003546563, No Iterations 2
DILUPBiCGStab:  Solving for Uz, Initial residual = 0.3483595, Final residual = 0.0005556363, No Iterations 2
GAMG:  Solving for p, Initial residual = 0.02070866, Final residual = 0.0003071333, No Iterations 100
GAMG:  Solving for p, Initial residual = 0.02469383, Final residual = 0.0008563688, No Iterations 100
GAMG:  Solving for p, Initial residual = 0.005028359, Final residual = 0.0002107717, No Iterations 100
time step continuity errors : sum local = 0.0001911198, global = -8.807522e-07, cumulative = 3.606473e-07
DILUPBiCGStab:  Solving for omega, Initial residual = 0.0007181255, Final residual = 2.330057e-05, No Iterations 1
DILUPBiCGStab:  Solving for k, Initial residual = 0.311215, Final residual = 0.0210781, No Iterations 1
ExecutionTime = 1.33 s  ClockTime = 1 s

forceCoeffs forceCoefficientMonitorOnLowerUpperTipInDefault write:
    Coefficient	Total	Pressure	Viscous	Internal
    Cd:	0.5680968	0.004096482	0.5640004	0
    Cd(f):	0.2840484	0.002048241	0.2820002	0
    Cd(r):	0.2840484	0.002048241	0.2820002	0
    Cl:	0.000692709	3.174428e-07	0.0006923915	0
    Cl(f):	0.0003285138	-1.78626e-05	0.0003463764	0
    Cl(r):	0.0003641952	1.818005e-05	0.0003460152	0
    CmPitch:	-1.784073e-05	-1.802133e-05	1.80599e-07	0
    CmRoll:	-1.944403e-21	9.507341e-23	-2.039477e-21	0
    CmYaw:	-3.506646e-20	-3.225384e-20	-2.812617e-21	0
    Cs:	-2.92251e-20	-2.745679e-21	-2.647942e-20	0
    Cs(f):	-4.967901e-20	-3.362668e-20	-1.605233e-20	0
    Cs(r):	2.045391e-20	3.0881e-20	-1.042709e-20	0

    writing force and moment coefficient files.

Time = 3

DILUPBiCGStab:  Solving for Ux, Initial residual = 0.0152391, Final residual = 5.505803e-05, No Iterations 2
DILUPBiCGStab:  Solving for Uz, Initial residual = 0.1479923, Final residual = 0.0002246567, No Iterations 2
GAMG:  Solving for p, Initial residual = 0.02926863, Final residual = 0.000789924, No Iterations 100
GAMG:  Solving for p, Initial residual = 0.007223688, Final residual = 0.0002375345, No Iterations 100
GAMG:  Solving for p, Initial residual = 0.002781215, Final residual = 0.0001302629, No Iterations 100
time step continuity errors : sum local = 0.0001986461, global = -9.046154e-07, cumulative = -5.439681e-07
DILUPBiCGStab:  Solving for omega, Initial residual = 0.0006446658, Final residual = 1.623298e-05, No Iterations 1
DILUPBiCGStab:  Solving for k, Initial residual = 0.1636557, Final residual = 0.01148046, No Iterations 1
ExecutionTime = 1.94 s  ClockTime = 2 s

forceCoeffs forceCoefficientMonitorOnLowerUpperTipInDefault write:
    Coefficient	Total	Pressure	Viscous	Internal
    Cd:	-0.009109761	0.003260258	-0.01237002	0
    Cd(f):	-0.00455488	0.001630129	-0.006185009	0
    Cd(r):	-0.00455488	0.001630129	-0.006185009	0
    Cl:	0.0009222217	9.982835e-07	0.0009212235	0
    Cl(f):	0.0004008419	-5.984193e-05	0.0004606838	0
    Cl(r):	0.0005213798	6.084022e-05	0.0004605396	0
    CmPitch:	-6.026895e-05	-6.034107e-05	7.212114e-08	0
    CmRoll:	-3.002682e-21	6.933188e-24	-3.009616e-21	0
    CmYaw:	4.423345e-20	4.449768e-20	-2.642314e-22	0
    Cs:	3.629377e-20	-2.314447e-22	3.652522e-20	0
    Cs(f):	6.238034e-20	4.438196e-20	1.799838e-20	0
    Cs(r):	-2.608657e-20	-4.461341e-20	1.852684e-20	0

    writing force and moment coefficient files.

Time = 4

DILUPBiCGStab:  Solving for Ux, Initial residual = 0.002916617, Final residual = 1.454024e-05, No Iterations 2
DILUPBiCGStab:  Solving for Uz, Initial residual = 0.04395595, Final residual = 0.0001638676, No Iterations 2
GAMG:  Solving for p, Initial residual = 0.01534309, Final residual = 0.0002122268, No Iterations 100
GAMG:  Solving for p, Initial residual = 0.002326408, Final residual = 7.24733e-05, No Iterations 100
GAMG:  Solving for p, Initial residual = 0.0007217787, Final residual = 4.412438e-05, No Iterations 100
time step continuity errors : sum local = 6.71785e-05, global = -2.128644e-07, cumulative = -7.568324e-07
DILUPBiCGStab:  Solving for omega, Initial residual = 0.000343977, Final residual = 7.027233e-06, No Iterations 1
DILUPBiCGStab:  Solving for k, Initial residual = 0.1072343, Final residual = 0.007029385, No Iterations 1
ExecutionTime = 2.6 s  ClockTime = 3 s

forceCoeffs forceCoefficientMonitorOnLowerUpperTipInDefault write:
    Coefficient	Total	Pressure	Viscous	Internal
    Cd:	-0.1664106	0.003782688	-0.1701933	0
    Cd(f):	-0.08320531	0.001891344	-0.08509665	0
    Cd(r):	-0.08320531	0.001891344	-0.08509665	0
    Cl:	0.0003223137	-1.769265e-07	0.0003224906	0
    Cl(f):	0.0001150878	-4.612146e-05	0.0001612093	0
    Cl(r):	0.0002072258	4.594453e-05	0.0001612813	0
    CmPitch:	-4.606898e-05	-4.603299e-05	-3.599211e-08	0
    CmRoll:	-1.081995e-21	-1.632013e-23	-1.065675e-21	0
    CmYaw:	5.42568e-20	5.431962e-20	-6.282128e-23	0
    Cs:	4.450761e-20	-8.268034e-23	4.459029e-20	0
    Cs(f):	7.65106e-20	5.427828e-20	2.223232e-20	0
    Cs(r):	-3.200299e-20	-5.436096e-20	2.235797e-20	0

    writing force and moment coefficient files.

Time = 5

DILUPBiCGStab:  Solving for Ux, Initial residual = 0.004938135, Final residual = 2.456163e-05, No Iterations 2
DILUPBiCGStab:  Solving for Uz, Initial residual = 0.0543213, Final residual = 0.0001841989, No Iterations 2
GAMG:  Solving for p, Initial residual = 0.01194508, Final residual = 0.0002093069, No Iterations 100
GAMG:  Solving for p, Initial residual = 0.003078116, Final residual = 0.0001099049, No Iterations 100
GAMG:  Solving for p, Initial residual = 0.001435385, Final residual = 5.378847e-05, No Iterations 100
time step continuity errors : sum local = 4.479082e-05, global = 2.086896e-07, cumulative = -5.481428e-07
DILUPBiCGStab:  Solving for omega, Initial residual = 0.0002286027, Final residual = 4.69525e-06, No Iterations 1
DILUPBiCGStab:  Solving for k, Initial residual = 0.07532953, Final residual = 0.004568213, No Iterations 1
ExecutionTime = 3.2 s  ClockTime = 3 s

forceCoeffs forceCoefficientMonitorOnLowerUpperTipInDefault write:
    Coefficient	Total	Pressure	Viscous	Internal
    Cd:	-0.08665494	0.003610792	-0.09026573	0
    Cd(f):	-0.04332747	0.001805396	-0.04513287	0
    Cd(r):	-0.04332747	0.001805396	-0.04513287	0
    Cl:	-0.0002493814	-1.465202e-07	-0.0002492349	0
    Cl(f):	-0.0001211267	3.523074e-06	-0.0001246498	0
    Cl(r):	-0.0001282547	-3.669594e-06	-0.0001245851	0
    CmPitch:	3.564001e-06	3.596334e-06	-3.233332e-08	0
    CmRoll:	2.359431e-22	-6.465099e-24	2.424082e-22	0
    CmYaw:	3.5296e-20	3.52023e-20	9.36943e-23	0
    Cs:	2.896181e-20	6.340124e-23	2.889841e-20	0
    Cs(f):	4.97769e-20	3.5234e-20	1.45429e-20	0
    Cs(r):	-2.081509e-20	-3.51706e-20	1.435551e-20	0

    writing force and moment coefficient files.

Time = 6

DILUPBiCGStab:  Solving for Ux, Initial residual = 0.003532882, Final residual = 2.26858e-05, No Iterations 2
DILUPBiCGStab:  Solving for Uz, Initial residual = 0.03263767, Final residual = 0.0002522226, No Iterations 2
GAMG:  Solving for p, Initial residual = 0.01430468, Final residual = 0.0002263643, No Iterations 100
GAMG:  Solving for p, Initial residual = 0.005251751, Final residual = 0.0001729865, No Iterations 100
GAMG:  Solving for p, Initial residual = 0.00201529, Final residual = 8.270578e-05, No Iterations 100
time step continuity errors : sum local = 3.924343e-05, global = 2.206001e-07, cumulative = -3.275427e-07
DILUPBiCGStab:  Solving for omega, Initial residual = 0.0001496803, Final residual = 3.721593e-06, No Iterations 1
DILUPBiCGStab:  Solving for k, Initial residual = 0.05855681, Final residual = 0.003281512, No Iterations 1
ExecutionTime = 3.87 s  ClockTime = 4 s

forceCoeffs forceCoefficientMonitorOnLowerUpperTipInDefault write:
    Coefficient	Total	Pressure	Viscous	Internal
    Cd:	-0.004229687	0.003481678	-0.007711366	0
    Cd(f):	-0.002114844	0.001740839	-0.003855683	0
    Cd(r):	-0.002114844	0.001740839	-0.003855683	0
    Cl:	-0.0003164242	-1.291066e-06	-0.0003151331	0
    Cl(f):	-0.0001416563	1.590091e-05	-0.0001575572	0
    Cl(r):	-0.000174768	-1.719197e-05	-0.000157576	0
    CmPitch:	1.655585e-05	1.654644e-05	9.409543e-09	0
    CmRoll:	4.207393e-22	5.260492e-24	4.154788e-22	0
    CmYaw:	2.067735e-20	2.058779e-20	8.955323e-23	0
    Cs:	1.700431e-20	1.04388e-22	1.689992e-20	0
    Cs(f):	2.91795e-20	2.063999e-20	8.539516e-21	0
    Cs(r):	-1.217519e-20	-2.05356e-20	8.360409e-21	0

    writing force and moment coefficient files.

Time = 7

DILUPBiCGStab:  Solving for Ux, Initial residual = 0.00221856, Final residual = 1.726302e-05, No Iterations 2
DILUPBiCGStab:  Solving for Uz, Initial residual = 0.02221118, Final residual = 7.012137e-05, No Iterations 2
GAMG:  Solving for p, Initial residual = 0.01388475, Final residual = 0.000135761, No Iterations 72
GAMG:  Solving for p, Initial residual = 0.002412537, Final residual = 6.961064e-05, No Iterations 100
GAMG:  Solving for p, Initial residual = 0.0008147598, Final residual = 3.485153e-05, No Iterations 100
time step continuity errors : sum local = 1.656105e-05, global = 1.263504e-07, cumulative = -2.011923e-07
DILUPBiCGStab:  Solving for omega, Initial residual = 0.0001237598, Final residual = 3.158209e-06, No Iterations 1
DILUPBiCGStab:  Solving for k, Initial residual = 0.04826195, Final residual = 0.00252342, No Iterations 1
ExecutionTime = 4.43 s  ClockTime = 4 s

forceCoeffs forceCoefficientMonitorOnLowerUpperTipInDefault write:
    Coefficient	Total	Pressure	Viscous	Internal
    Cd:	0.02452393	0.003292567	0.02123136	0
    Cd(f):	0.01226196	0.001646284	0.01061568	0
    Cd(r):	0.01226196	0.001646284	0.01061568	0
    Cl:	-0.0001237896	2.376845e-06	-0.0001261665	0
    Cl(f):	-6.259681e-05	5.528209e-07	-6.314963e-05	0
    Cl(r):	-6.11928e-05	1.824024e-06	-6.301683e-05	0
    CmPitch:	-7.020023e-07	-6.356018e-07	-6.640052e-08	0
    CmRoll:	1.367018e-22	8.370113e-24	1.283317e-22	0
    CmYaw:	1.692509e-20	1.687707e-20	4.802881e-23	0
    Cs:	1.391508e-20	6.427077e-23	1.385081e-20	0
    Cs(f):	2.388263e-20	1.69092e-20	6.973434e-21	0
    Cs(r):	-9.967554e-21	-1.684493e-20	6.877376e-21	0

    writing force and moment coefficient files.

Time = 8

DILUPBiCGStab:  Solving for Ux, Initial residual = 0.00205697, Final residual = 1.395323e-05, No Iterations 2
DILUPBiCGStab:  Solving for Uz, Initial residual = 0.02241959, Final residual = 0.0001481153, No Iterations 2
GAMG:  Solving for p, Initial residual = 0.01086799, Final residual = 0.0001078431, No Iterations 63
GAMG:  Solving for p, Initial residual = 0.001154655, Final residual = 2.533965e-05, No Iterations 100
GAMG:  Solving for p, Initial residual = 0.0004280723, Final residual = 1.431113e-05, No Iterations 100
time step continuity errors : sum local = 8.320253e-06, global = 5.924882e-09, cumulative = -1.952674e-07
DILUPBiCGStab:  Solving for omega, Initial residual = 0.0001117175, Final residual = 2.854769e-06, No Iterations 1
DILUPBiCGStab:  Solving for k, Initial residual = 0.0409559, Final residual = 0.002013703, No Iterations 1
ExecutionTime = 4.94 s  ClockTime = 5 s

forceCoeffs forceCoefficientMonitorOnLowerUpperTipInDefault write:
    Coefficient	Total	Pressure	Viscous	Internal
    Cd:	0.0201338	0.003163525	0.01697028	0
    Cd(f):	0.0100669	0.001581763	0.008485138	0
    Cd(r):	0.0100669	0.001581763	0.008485138	0
    Cl:	3.134248e-05	1.403308e-06	2.993917e-05	0
    Cl(f):	2.291926e-06	-1.259475e-05	1.488668e-05	0
    Cl(r):	2.905055e-05	1.399806e-05	1.505249e-05	0
    CmPitch:	-1.337931e-05	-1.329641e-05	-8.290601e-08	0
    CmRoll:	-1.268692e-22	6.980523e-24	-1.338498e-22	0
    CmYaw:	1.84012e-20	1.837872e-20	2.247826e-23	0
    Cs:	1.513019e-20	4.999319e-23	1.508019e-20	0
    Cs(f):	2.596629e-20	1.840372e-20	7.562576e-21	0
    Cs(r):	-1.08361e-20	-1.835372e-20	7.517619e-21	0

    writing force and moment coefficient files.

Time = 9

DILUPBiCGStab:  Solving for Ux, Initial residual = 0.001670222, Final residual = 1.269014e-05, No Iterations 2
DILUPBiCGStab:  Solving for Uz, Initial residual = 0.01972539, Final residual = 7.030264e-05, No Iterations 2
GAMG:  Solving for p, Initial residual = 0.007842146, Final residual = 7.691261e-05, No Iterations 55
GAMG:  Solving for p, Initial residual = 0.0008785188, Final residual = 1.307537e-05, No Iterations 100
GAMG:  Solving for p, Initial residual = 0.0003299687, Final residual = 6.392846e-06, No Iterations 100
time step continuity errors : sum local = 4.102561e-06, global = -1.132209e-08, cumulative = -2.065895e-07
DILUPBiCGStab:  Solving for omega, Initial residual = 0.000106888, Final residual = 2.613427e-06, No Iterations 1
DILUPBiCGStab:  Solving for k, Initial residual = 0.03536766, Final residual = 0.001649685, No Iterations 1
ExecutionTime = 5.5 s  ClockTime = 6 s

forceCoeffs forceCoefficientMonitorOnLowerUpperTipInDefault write:
    Coefficient	Total	Pressure	Viscous	Internal
    Cd:	0.01088161	0.00312759	0.00775402	0
    Cd(f):	0.005440805	0.001563795	0.00387701	0
    Cd(r):	0.005440805	0.001563795	0.00387701	0
    Cl:	6.463117e-05	3.622534e-07	6.426891e-05	0
    Cl(f):	1.986246e-05	-1.217864e-05	3.204111e-05	0
    Cl(r):	4.47687e-05	1.25409e-05	3.22278e-05	0
    CmPitch:	-1.245312e-05	-1.235977e-05	-9.334741e-08	0
    CmRoll:	-1.732508e-22	5.281678e-24	-1.785325e-22	0
    CmYaw:	2.017116e-20	2.012503e-20	4.612916e-23	0
    Cs:	1.658115e-20	7.029552e-23	1.651085e-20	0
    Cs(f):	2.846173e-20	2.016018e-20	8.301554e-21	0
    Cs(r):	-1.188059e-20	-2.008988e-20	8.209296e-21	0

    writing force and moment coefficient files.

Time = 10

DILUPBiCGStab:  Solving for Ux, Initial residual = 0.0014146, Final residual = 1.250972e-05, No Iterations 2
DILUPBiCGStab:  Solving for Uz, Initial residual = 0.01755713, Final residual = 5.101867e-05, No Iterations 2
GAMG:  Solving for p, Initial residual = 0.005494039, Final residual = 5.435451e-05, No Iterations 43
GAMG:  Solving for p, Initial residual = 0.0006456434, Final residual = 1.56344e-05, No Iterations 100
GAMG:  Solving for p, Initial residual = 0.0002299933, Final residual = 9.78908e-06, No Iterations 100
time step continuity errors : sum local = 6.329508e-06, global = 2.907556e-08, cumulative = -1.77514e-07
DILUPBiCGStab:  Solving for omega, Initial residual = 0.0001017272, Final residual = 2.362081e-06, No Iterations 1
DILUPBiCGStab:  Solving for k, Initial residual = 0.03088998, Final residual = 0.001379793, No Iterations 1
ExecutionTime = 6 s  ClockTime = 6 s

forceCoeffs forceCoefficientMonitorOnLowerUpperTipInDefault write:
    Coefficient	Total	Pressure	Viscous	Internal
    Cd:	0.006528785	0.003170708	0.003358077	0
    Cd(f):	0.003264392	0.001585354	0.001679039	0
    Cd(r):	0.003264392	0.001585354	0.001679039	0
    Cl:	2.167547e-05	5.325179e-08	2.162222e-05	0
    Cl(f):	6.487914e-06	-4.224658e-06	1.071257e-05	0
    Cl(r):	1.518756e-05	4.27791e-06	1.090965e-05	0
    CmPitch:	-4.349821e-06	-4.251284e-06	-9.853659e-08	0
    CmRoll:	-1.20845e-22	4.633698e-24	-1.254787e-22	0
    CmYaw:	2.082018e-20	2.075354e-20	6.66371e-23	0
    Cs:	1.711635e-20	9.160072e-23	1.702475e-20	0
    Cs(f):	2.937835e-20	2.079934e-20	8.579012e-21	0
    Cs(r):	-1.2262e-20	-2.070774e-20	8.445738e-21	0

    writing force and moment coefficient files.

Time = 11

DILUPBiCGStab:  Solving for Ux, Initial residual = 0.001305501, Final residual = 1.194805e-05, No Iterations 2
DILUPBiCGStab:  Solving for Uz, Initial residual = 0.01640884, Final residual = 4.316084e-05, No Iterations 2
GAMG:  Solving for p, Initial residual = 0.004172623, Final residual = 4.129215e-05, No Iterations 79
GAMG:  Solving for p, Initial residual = 0.0005533885, Final residual = 1.831019e-05, No Iterations 100
GAMG:  Solving for p, Initial residual = 0.0001824502, Final residual = 1.132237e-05, No Iterations 100
time step continuity errors : sum local = 7.192877e-06, global = 3.686166e-08, cumulative = -1.406523e-07
DILUPBiCGStab:  Solving for omega, Initial residual = 9.478942e-05, Final residual = 2.163249e-06, No Iterations 1
DILUPBiCGStab:  Solving for k, Initial residual = 0.0271952, Final residual = 0.001173129, No Iterations 1
ExecutionTime = 6.55 s  ClockTime = 7 s

forceCoeffs forceCoefficientMonitorOnLowerUpperTipInDefault write:
    Coefficient	Total	Pressure	Viscous	Internal
    Cd:	0.00602225	0.0032436	0.00277865	0
    Cd(f):	0.003011125	0.0016218	0.001389325	0
    Cd(r):	0.003011125	0.0016218	0.001389325	0
    Cl:	-1.255243e-05	-3.206399e-07	-1.223179e-05	0
    Cl(f):	-7.163185e-06	-9.569178e-07	-6.206267e-06	0
    Cl(r):	-5.389242e-06	6.36278e-07	-6.02552e-06	0
    CmPitch:	-8.869714e-07	-7.965979e-07	-9.03735e-08	0
    CmRoll:	-6.746188e-23	4.665001e-24	-7.212688e-23	0
    CmYaw:	2.079265e-20	2.074194e-20	5.07118e-23	0
    Cs:	1.709268e-20	7.839241e-23	1.701429e-20	0
    Cs(f):	2.933899e-20	2.078114e-20	8.557855e-21	0
    Cs(r):	-1.224631e-20	-2.070274e-20	8.456431e-21	0

    writing force and moment coefficient files.

Time = 12

DILUPBiCGStab:  Solving for Ux, Initial residual = 0.001213994, Final residual = 1.086543e-05, No Iterations 2
DILUPBiCGStab:  Solving for Uz, Initial residual = 0.01551925, Final residual = 3.648362e-05, No Iterations 2
GAMG:  Solving for p, Initial residual = 0.003534017, Final residual = 3.518152e-05, No Iterations 79
GAMG:  Solving for p, Initial residual = 0.0004804175, Final residual = 1.632847e-05, No Iterations 100
GAMG:  Solving for p, Initial residual = 0.0001584884, Final residual = 1.011881e-05, No Iterations 100
time step continuity errors : sum local = 6.365011e-06, global = 3.438078e-08, cumulative = -1.062715e-07
DILUPBiCGStab:  Solving for omega, Initial residual = 8.832279e-05, Final residual = 1.977656e-06, No Iterations 1
DILUPBiCGStab:  Solving for k, Initial residual = 0.0241661, Final residual = 0.00101134, No Iterations 1
ExecutionTime = 7.16 s  ClockTime = 7 s

forceCoeffs forceCoefficientMonitorOnLowerUpperTipInDefault write:
    Coefficient	Total	Pressure	Viscous	Internal
    Cd:	0.006655474	0.003324449	0.003331025	0
    Cd(f):	0.003327737	0.001662224	0.001665512	0
    Cd(r):	0.003327737	0.001662224	0.001665512	0
    Cl:	-3.143026e-05	1.013902e-07	-3.153165e-05	0
    Cl(f):	-1.698808e-05	-1.13472e-06	-1.585336e-05	0
    Cl(r):	-1.444218e-05	1.23611e-06	-1.567829e-05	0
    CmPitch:	-1.272953e-06	-1.185415e-06	-8.753786e-08	0
    CmRoll:	-4.030063e-23	4.822085e-24	-4.512272e-23	0
    CmYaw:	2.073041e-20	2.067585e-20	5.455741e-23	0
    Cs:	1.704389e-20	8.393949e-23	1.695995e-20	0
    Cs(f):	2.925236e-20	2.071782e-20	8.534531e-21	0
    Cs(r):	-1.220847e-20	-2.063388e-20	8.425416e-21	0

    writing force and moment coefficient files.

Time = 13

DILUPBiCGStab:  Solving for Ux, Initial residual = 0.001128781, Final residual = 9.717552e-06, No Iterations 2
DILUPBiCGStab:  Solving for Uz, Initial residual = 0.0148869, Final residual = 3.159502e-05, No Iterations 2
GAMG:  Solving for p, Initial residual = 0.003004019, Final residual = 2.98841e-05, No Iterations 69
GAMG:  Solving for p, Initial residual = 0.0004055922, Final residual = 1.368062e-05, No Iterations 100
GAMG:  Solving for p, Initial residual = 0.0001307316, Final residual = 8.521512e-06, No Iterations 100
time step continuity errors : sum local = 5.364434e-06, global = 2.929867e-08, cumulative = -7.697287e-08
DILUPBiCGStab:  Solving for omega, Initial residual = 8.256971e-05, Final residual = 1.827869e-06, No Iterations 1
DILUPBiCGStab:  Solving for k, Initial residual = 0.02169366, Final residual = 0.0008807302, No Iterations 1
ExecutionTime = 7.7 s  ClockTime = 8 s

forceCoeffs forceCoefficientMonitorOnLowerUpperTipInDefault write:
    Coefficient	Total	Pressure	Viscous	Internal
    Cd:	0.007179368	0.003413849	0.003765519	0
    Cd(f):	0.003589684	0.001706924	0.00188276	0
    Cd(r):	0.003589684	0.001706924	0.00188276	0
    Cl:	-1.702826e-05	3.720195e-09	-1.703198e-05	0
    Cl(f):	-1.496813e-05	-6.349584e-06	-8.618549e-06	0
    Cl(r):	-2.060131e-06	6.353304e-06	-8.413435e-06	0
    CmPitch:	-6.454001e-06	-6.351444e-06	-1.025572e-07	0
    CmRoll:	-3.288685e-23	4.891091e-24	-3.777794e-23	0
    CmYaw:	2.076444e-20	2.07338e-20	3.063806e-23	0
    Cs:	1.706805e-20	5.992125e-23	1.700813e-20	0
    Cs(f):	2.929846e-20	2.076376e-20	8.534704e-21	0
    Cs(r):	-1.223041e-20	-2.070384e-20	8.473428e-21	0

    writing force and moment coefficient files.

Time = 14

DILUPBiCGStab:  Solving for Ux, Initial residual = 0.001049604, Final residual = 8.652826e-06, No Iterations 2
DILUPBiCGStab:  Solving for Uz, Initial residual = 0.01433856, Final residual = 2.774026e-05, No Iterations 2
GAMG:  Solving for p, Initial residual = 0.002422408, Final residual = 2.383444e-05, No Iterations 78
GAMG:  Solving for p, Initial residual = 0.0003391252, Final residual = 1.165544e-05, No Iterations 100
GAMG:  Solving for p, Initial residual = 0.0001070659, Final residual = 7.526479e-06, No Iterations 100
time step continuity errors : sum local = 4.762246e-06, global = 2.450063e-08, cumulative = -5.247224e-08
DILUPBiCGStab:  Solving for omega, Initial residual = 7.707678e-05, Final residual = 1.706967e-06, No Iterations 1
DILUPBiCGStab:  Solving for k, Initial residual = 0.01963857, Final residual = 0.0007734146, No Iterations 1
ExecutionTime = 8.32 s  ClockTime = 8 s

forceCoeffs forceCoefficientMonitorOnLowerUpperTipInDefault write:
    Coefficient	Total	Pressure	Viscous	Internal
    Cd:	0.007426835	0.003509047	0.003917789	0
    Cd(f):	0.003713418	0.001754523	0.001958894	0
    Cd(r):	0.003713418	0.001754523	0.001958894	0
    Cl:	-1.60409e-05	2.250574e-07	-1.626596e-05	0
    Cl(f):	-1.728664e-05	-9.04676e-06	-8.239877e-06	0
    Cl(r):	1.245736e-06	9.271818e-06	-8.026081e-06	0
    CmPitch:	-9.266187e-06	-9.159289e-06	-1.068981e-07	0
    CmRoll:	-3.247435e-23	4.879242e-24	-3.735359e-23	0
    CmYaw:	2.088066e-20	2.085245e-20	2.82081e-23	0
    Cs:	1.716188e-20	5.53874e-23	1.71065e-20	0
    Cs(f):	2.94616e-20	2.088014e-20	8.581456e-21	0
    Cs(r):	-1.229972e-20	-2.082475e-20	8.52504e-21	0

    writing force and moment coefficient files.

Time = 15

DILUPBiCGStab:  Solving for Ux, Initial residual = 0.0009766875, Final residual = 7.637763e-06, No Iterations 2
DILUPBiCGStab:  Solving for Uz, Initial residual = 0.01384028, Final residual = 2.402927e-05, No Iterations 2
GAMG:  Solving for p, Initial residual = 0.001965822, Final residual = 1.96106e-05, No Iterations 96
GAMG:  Solving for p, Initial residual = 0.0002837638, Final residual = 1.034574e-05, No Iterations 100
GAMG:  Solving for p, Initial residual = 8.883783e-05, Final residual = 6.836244e-06, No Iterations 100
time step continuity errors : sum local = 4.347988e-06, global = 2.123142e-08, cumulative = -3.124082e-08
DILUPBiCGStab:  Solving for omega, Initial residual = 7.209792e-05, Final residual = 1.61076e-06, No Iterations 1
DILUPBiCGStab:  Solving for k, Initial residual = 0.01790273, Final residual = 0.0006841992, No Iterations 1
ExecutionTime = 8.9 s  ClockTime = 9 s

forceCoeffs forceCoefficientMonitorOnLowerUpperTipInDefault write:
    Coefficient	Total	Pressure	Viscous	Internal
    Cd:	0.00750772	0.003605228	0.003902491	0
    Cd(f):	0.00375386	0.001802614	0.001951246	0
    Cd(r):	0.00375386	0.001802614	0.001951246	0
    Cl:	-2.377825e-05	3.432369e-07	-2.412149e-05	0
    Cl(f):	-2.222482e-05	-1.00547e-05	-1.217012e-05	0
    Cl(r):	-1.553431e-06	1.039793e-05	-1.195137e-05	0
    CmPitch:	-1.033569e-05	-1.022632e-05	-1.093774e-07	0
    CmRoll:	-3.238825e-23	4.849564e-24	-3.723782e-23	0
    CmYaw:	2.097988e-20	2.094686e-20	3.302626e-23	0
    Cs:	1.724377e-20	5.863312e-23	1.718514e-20	0
    Cs(f):	2.960177e-20	2.097617e-20	8.625595e-21	0
    Cs(r):	-1.2358e-20	-2.091754e-20	8.559542e-21	0

    writing force and moment coefficient files.

Time = 16

DILUPBiCGStab:  Solving for Ux, Initial residual = 0.0009110254, Final residual = 6.654372e-06, No Iterations 2
DILUPBiCGStab:  Solving for Uz, Initial residual = 0.01342825, Final residual = 2.054274e-05, No Iterations 2
GAMG:  Solving for p, Initial residual = 0.001617991, Final residual = 1.853497e-05, No Iterations 100
GAMG:  Solving for p, Initial residual = 0.0002425837, Final residual = 9.741342e-06, No Iterations 100
GAMG:  Solving for p, Initial residual = 7.611147e-05, Final residual = 6.455286e-06, No Iterations 100
time step continuity errors : sum local = 4.125483e-06, global = 2.028735e-08, cumulative = -1.095347e-08
DILUPBiCGStab:  Solving for omega, Initial residual = 6.821087e-05, Final residual = 1.514144e-06, No Iterations 1
DILUPBiCGStab:  Solving for k, Initial residual = 0.01643024, Final residual = 0.0006097178, No Iterations 1
ExecutionTime = 9.49 s  ClockTime = 10 s

forceCoeffs forceCoefficientMonitorOnLowerUpperTipInDefault write:
    Coefficient	Total	Pressure	Viscous	Internal
    Cd:	0.007531908	0.003702298	0.00382961	0
    Cd(f):	0.003765954	0.001851149	0.001914805	0
    Cd(r):	0.003765954	0.001851149	0.001914805	0
    Cl:	-3.022197e-05	4.013098e-07	-3.062328e-05	0
    Cl(f):	-2.655974e-05	-1.112714e-05	-1.543259e-05	0
    Cl(r):	-3.662233e-06	1.152845e-05	-1.519069e-05	0
    CmPitch:	-1.144875e-05	-1.13278e-05	-1.209535e-07	0
    CmRoll:	-3.17056e-23	4.836773e-24	-3.654237e-23	0
    CmYaw:	2.102098e-20	2.098897e-20	3.201644e-23	0
    Cs:	1.727721e-20	5.632291e-23	1.722089e-20	0
    Cs(f):	2.965959e-20	2.101713e-20	8.642462e-21	0
    Cs(r):	-1.238238e-20	-2.096081e-20	8.578429e-21	0

    writing force and moment coefficient files.

Time = 17

DILUPBiCGStab:  Solving for Ux, Initial residual = 0.0008538927, Final residual = 5.752184e-06, No Iterations 2
DILUPBiCGStab:  Solving for Uz, Initial residual = 0.0130667, Final residual = 1.743038e-05, No Iterations 2
GAMG:  Solving for p, Initial residual = 0.001370118, Final residual = 1.749999e-05, No Iterations 100
GAMG:  Solving for p, Initial residual = 0.0002135629, Final residual = 9.133026e-06, No Iterations 100
GAMG:  Solving for p, Initial residual = 6.653611e-05, Final residual = 6.085972e-06, No Iterations 100
time step continuity errors : sum local = 3.908372e-06, global = 1.92273e-08, cumulative = 8.273829e-09
DILUPBiCGStab:  Solving for omega, Initial residual = 6.506255e-05, Final residual = 1.418544e-06, No Iterations 1
DILUPBiCGStab:  Solving for k, Initial residual = 0.01516721, Final residual = 0.0005469604, No Iterations 1
ExecutionTime = 10.12 s  ClockTime = 10 s

forceCoeffs forceCoefficientMonitorOnLowerUpperTipInDefault write:
    Coefficient	Total	Pressure	Viscous	Internal
    Cd:	0.007549481	0.003798324	0.003751157	0
    Cd(f):	0.00377474	0.001899162	0.001875578	0
    Cd(r):	0.00377474	0.001899162	0.001875578	0
    Cl:	-3.051951e-05	3.982588e-07	-3.091777e-05	0
    Cl(f):	-2.850169e-05	-1.29331e-05	-1.556859e-05	0
    Cl(r):	-2.017823e-06	1.333135e-05	-1.534918e-05	0
    CmPitch:	-1.324193e-05	-1.313222e-05	-1.097062e-07	0
    CmRoll:	-3.094358e-23	4.840275e-24	-3.578386e-23	0
    CmYaw:	2.102238e-20	2.099115e-20	3.123086e-23	0
    Cs:	1.72783e-20	5.449241e-23	1.722381e-20	0
    Cs(f):	2.966153e-20	2.101839e-20	8.643136e-21	0
    Cs(r):	-1.238323e-20	-2.09639e-20	8.580674e-21	0

    writing force and moment coefficient files.

Time = 18

DILUPBiCGStab:  Solving for Ux, Initial residual = 0.000802744, Final residual = 4.952933e-06, No Iterations 2
DILUPBiCGStab:  Solving for Uz, Initial residual = 0.01274039, Final residual = 1.494736e-05, No Iterations 2
GAMG:  Solving for p, Initial residual = 0.001176757, Final residual = 1.611354e-05, No Iterations 100
GAMG:  Solving for p, Initial residual = 0.0001891243, Final residual = 8.4656e-06, No Iterations 100
GAMG:  Solving for p, Initial residual = 5.91409e-05, Final residual = 5.633261e-06, No Iterations 100
time step continuity errors : sum local = 3.635674e-06, global = 1.754146e-08, cumulative = 2.581529e-08
DILUPBiCGStab:  Solving for omega, Initial residual = 6.197417e-05, Final residual = 1.333985e-06, No Iterations 1
DILUPBiCGStab:  Solving for k, Initial residual = 0.01407341, Final residual = 0.0004936516, No Iterations 1
ExecutionTime = 10.69 s  ClockTime = 11 s

forceCoeffs forceCoefficientMonitorOnLowerUpperTipInDefault write:
    Coefficient	Total	Pressure	Viscous	Internal
    Cd:	0.007570956	0.003891057	0.003679899	0
    Cd(f):	0.003785478	0.001945528	0.00183995	0
    Cd(r):	0.003785478	0.001945528	0.00183995	0
    Cl:	-2.648523e-05	3.767573e-07	-2.686199e-05	0
    Cl(f):	-2.801529e-05	-1.448504e-05	-1.353025e-05	0
    Cl(r):	1.53006e-06	1.48618e-05	-1.333174e-05	0
    CmPitch:	-1.477267e-05	-1.467342e-05	-9.925574e-08	0
    CmRoll:	-3.061586e-23	4.846542e-24	-3.54624e-23	0
    CmYaw:	2.100263e-20	2.097245e-20	3.017204e-23	0
    Cs:	1.726184e-20	5.235834e-23	1.720949e-20	0
    Cs(f):	2.963355e-20	2.099863e-20	8.634915e-21	0
    Cs(r):	-1.23717e-20	-2.094628e-20	8.574571e-21	0

    writing force and moment coefficient files.

Time = 19

DILUPBiCGStab:  Solving for Ux, Initial residual = 0.0007539629, Final residual = 4.254367e-06, No Iterations 2
DILUPBiCGStab:  Solving for Uz, Initial residual = 0.0124547, Final residual = 0.0001161052, No Iterations 1
GAMG:  Solving for p, Initial residual = 0.001004434, Final residual = 1.276618e-05, No Iterations 100
GAMG:  Solving for p, Initial residual = 0.0001656366, Final residual = 7.05891e-06, No Iterations 100
GAMG:  Solving for p, Initial residual = 5.153615e-05, Final residual = 4.79106e-06, No Iterations 100
time step continuity errors : sum local = 3.109697e-06, global = 1.241794e-08, cumulative = 3.823323e-08
DILUPBiCGStab:  Solving for omega, Initial residual = 5.896383e-05, Final residual = 1.267852e-06, No Iterations 1
DILUPBiCGStab:  Solving for k, Initial residual = 0.013124, Final residual = 0.0004482348, No Iterations 1
ExecutionTime = 11.32 s  ClockTime = 12 s

forceCoeffs forceCoefficientMonitorOnLowerUpperTipInDefault write:
    Coefficient	Total	Pressure	Viscous	Internal
    Cd:	0.007563004	0.003978776	0.003584228	0
    Cd(f):	0.003781502	0.001989388	0.001792114	0
    Cd(r):	0.003781502	0.001989388	0.001792114	0
    Cl:	-1.73076e-05	3.083389e-07	-1.761594e-05	0
    Cl(f):	-2.499812e-05	-1.610214e-05	-8.895988e-06	0
    Cl(r):	7.690521e-06	1.641047e-05	-8.719954e-06	0
    CmPitch:	-1.634432e-05	-1.625631e-05	-8.801678e-08	0
    CmRoll:	-3.082069e-23	4.838995e-24	-3.565969e-23	0
    CmYaw:	2.096975e-20	2.09415e-20	2.825094e-23	0
    Cs:	1.723415e-20	4.918645e-23	1.718496e-20	0
    Cs(f):	2.958683e-20	2.09661e-20	8.620731e-21	0
    Cs(r):	-1.235268e-20	-2.091691e-20	8.56423e-21	0

    writing force and moment coefficient files.

Time = 20

DILUPBiCGStab:  Solving for Ux, Initial residual = 0.0007079124, Final residual = 3.653931e-06, No Iterations 2
DILUPBiCGStab:  Solving for Uz, Initial residual = 0.01223847, Final residual = 0.0001079487, No Iterations 1
GAMG:  Solving for p, Initial residual = 0.0008800635, Final residual = 1.223019e-05, No Iterations 100
GAMG:  Solving for p, Initial residual = 0.0001436214, Final residual = 6.834108e-06, No Iterations 100
GAMG:  Solving for p, Initial residual = 4.567202e-05, Final residual = 4.606177e-06, No Iterations 100
time step continuity errors : sum local = 3.004746e-06, global = 1.165739e-08, cumulative = 4.989062e-08
DILUPBiCGStab:  Solving for omega, Initial residual = 5.617572e-05, Final residual = 1.206347e-06, No Iterations 1
DILUPBiCGStab:  Solving for k, Initial residual = 0.01229433, Final residual = 0.0004092468, No Iterations 1
ExecutionTime = 11.88 s  ClockTime = 12 s

forceCoeffs forceCoefficientMonitorOnLowerUpperTipInDefault write:
    Coefficient	Total	Pressure	Viscous	Internal
    Cd:	0.007565479	0.004060681	0.003504798	0
    Cd(f):	0.00378274	0.002030341	0.001752399	0
    Cd(r):	0.00378274	0.002030341	0.001752399	0
    Cl:	-1.061978e-05	2.662678e-07	-1.088604e-05	0
    Cl(f):	-2.257613e-05	-1.705295e-05	-5.523181e-06	0
    Cl(r):	1.195635e-05	1.731922e-05	-5.362863e-06	0
    CmPitch:	-1.726624e-05	-1.718608e-05	-8.015885e-08	0
    CmRoll:	-3.096601e-23	4.815794e-24	-3.57818e-23	0
    CmYaw:	2.092243e-20	2.089584e-20	2.659483e-23	0
    Cs:	1.719448e-20	4.624396e-23	1.714823e-20	0
    Cs(f):	2.951967e-20	2.091896e-20	8.600711e-21	0
    Cs(r):	-1.232519e-20	-2.087272e-20	8.547522e-21	0

    writing force and moment coefficient files.

Time = 21

DILUPBiCGStab:  Solving for Ux, Initial residual = 0.000665715, Final residual = 3.128277e-06, No Iterations 2
DILUPBiCGStab:  Solving for Uz, Initial residual = 0.01203288, Final residual = 9.95155e-05, No Iterations 1
GAMG:  Solving for p, Initial residual = 0.0007790723, Final residual = 1.211024e-05, No Iterations 100
GAMG:  Solving for p, Initial residual = 0.0001257423, Final residual = 6.711224e-06, No Iterations 100
GAMG:  Solving for p, Initial residual = 4.074289e-05, Final residual = 4.495334e-06, No Iterations 100
time step continuity errors : sum local = 2.946085e-06, global = 1.170575e-08, cumulative = 6.159636e-08
DILUPBiCGStab:  Solving for omega, Initial residual = 5.372267e-05, Final residual = 1.146731e-06, No Iterations 1
DILUPBiCGStab:  Solving for k, Initial residual = 0.01156695, Final residual = 0.0003756216, No Iterations 1
ExecutionTime = 12.46 s  ClockTime = 13 s

forceCoeffs forceCoefficientMonitorOnLowerUpperTipInDefault write:
    Coefficient	Total	Pressure	Viscous	Internal
    Cd:	0.00757683	0.004136684	0.003440146	0
    Cd(f):	0.003788415	0.002068342	0.001720073	0
    Cd(r):	0.003788415	0.002068342	0.001720073	0
    Cl:	-8.09682e-06	2.565486e-07	-8.353369e-06	0
    Cl(f):	-2.106637e-05	-1.681548e-05	-4.25089e-06	0
    Cl(r):	1.296955e-05	1.707203e-05	-4.102479e-06	0
    CmPitch:	-1.701796e-05	-1.694376e-05	-7.420577e-08	0
    CmRoll:	-3.120593e-23	4.776472e-24	-3.59824e-23	0
    CmYaw:	2.086344e-20	2.083839e-20	2.505061e-23	0
    Cs:	1.714506e-20	4.334316e-23	1.710172e-20	0
    Cs(f):	2.943597e-20	2.086006e-20	8.57591e-21	0
    Cs(r):	-1.229091e-20	-2.081672e-20	8.525808e-21	0

    writing force and moment coefficient files.

Time = 22

DILUPBiCGStab:  Solving for Ux, Initial residual = 0.0006276788, Final residual = 2.676134e-06, No Iterations 2
DILUPBiCGStab:  Solving for Uz, Initial residual = 0.01182964, Final residual = 9.059748e-05, No Iterations 1
GAMG:  Solving for p, Initial residual = 0.0006881252, Final residual = 1.156276e-05, No Iterations 100
GAMG:  Solving for p, Initial residual = 0.0001112806, Final residual = 6.478672e-06, No Iterations 100
GAMG:  Solving for p, Initial residual = 3.643878e-05, Final residual = 4.335705e-06, No Iterations 100
time step continuity errors : sum local = 2.854643e-06, global = 1.105375e-08, cumulative = 7.265011e-08
DILUPBiCGStab:  Solving for omega, Initial residual = 5.149334e-05, Final residual = 1.089442e-06, No Iterations 1
DILUPBiCGStab:  Solving for k, Initial residual = 0.01091885, Final residual = 0.0003461516, No Iterations 1
ExecutionTime = 13.1 s  ClockTime = 14 s

forceCoeffs forceCoefficientMonitorOnLowerUpperTipInDefault write:
    Coefficient	Total	Pressure	Viscous	Internal
    Cd:	0.007586771	0.004207006	0.003379765	0
    Cd(f):	0.003793386	0.002103503	0.001689883	0
    Cd(r):	0.003793386	0.002103503	0.001689883	0
    Cl:	-7.818008e-06	2.65012e-07	-8.08302e-06	0
    Cl(f):	-1.974065e-05	-1.563036e-05	-4.110296e-06	0
    Cl(r):	1.192265e-05	1.589537e-05	-3.972724e-06	0
    CmPitch:	-1.583165e-05	-1.576286e-05	-6.878589e-08	0
    CmRoll:	-3.158213e-23	4.72363e-24	-3.630576e-23	0
    CmYaw:	2.079718e-20	2.077385e-20	2.33366e-23	0
    Cs:	1.70897e-20	4.04222e-23	1.704927e-20	0
    Cs(f):	2.934203e-20	2.079406e-20	8.547974e-21	0
    Cs(r):	-1.225234e-20	-2.075364e-20	8.501301e-21	0

    writing force and moment coefficient files.

Time = 23

DILUPBiCGStab:  Solving for Ux, Initial residual = 0.0005926893, Final residual = 2.297075e-06, No Iterations 2
DILUPBiCGStab:  Solving for Uz, Initial residual = 0.01163779, Final residual = 8.199599e-05, No Iterations 1
GAMG:  Solving for p, Initial residual = 0.0006025861, Final residual = 1.058206e-05, No Iterations 100
GAMG:  Solving for p, Initial residual = 9.931406e-05, Final residual = 6.072834e-06, No Iterations 100
GAMG:  Solving for p, Initial residual = 3.236551e-05, Final residual = 4.065317e-06, No Iterations 100
time step continuity errors : sum local = 2.688497e-06, global = 9.740893e-09, cumulative = 8.239101e-08
DILUPBiCGStab:  Solving for omega, Initial residual = 4.932787e-05, Final residual = 1.037946e-06, No Iterations 1
DILUPBiCGStab:  Solving for k, Initial residual = 0.01034177, Final residual = 0.0003201289, No Iterations 1
ExecutionTime = 13.69 s  ClockTime = 14 s

forceCoeffs forceCoefficientMonitorOnLowerUpperTipInDefault write:
    Coefficient	Total	Pressure	Viscous	Internal
    Cd:	0.007592686	0.004272001	0.003320685	0
    Cd(f):	0.003796343	0.002136001	0.001660343	0
    Cd(r):	0.003796343	0.002136001	0.001660343	0
    Cl:	-8.093927e-06	2.778085e-07	-8.371735e-06	0
    Cl(f):	-1.813272e-05	-1.388337e-05	-4.249358e-06	0
    Cl(r):	1.00388e-05	1.416117e-05	-4.122377e-06	0
    CmPitch:	-1.408576e-05	-1.402227e-05	-6.349014e-08	0
    CmRoll:	-3.203375e-23	4.66158e-24	-3.669533e-23	0
    CmYaw:	2.072357e-20	2.070256e-20	2.101849e-23	0
    Cs:	1.702825e-20	3.705942e-23	1.699119e-20	0
    Cs(f):	2.92377e-20	2.072109e-20	8.516615e-21	0
    Cs(r):	-1.220945e-20	-2.068403e-20	8.474578e-21	0

    writing force and moment coefficient files.

Time = 24

DILUPBiCGStab:  Solving for Ux, Initial residual = 0.000560444, Final residual = 1.977922e-06, No Iterations 2
DILUPBiCGStab:  Solving for Uz, Initial residual = 0.01146281, Final residual = 7.429648e-05, No Iterations 1
GAMG:  Solving for p, Initial residual = 0.0005270047, Final residual = 9.461724e-06, No Iterations 100
GAMG:  Solving for p, Initial residual = 8.939568e-05, Final residual = 5.513825e-06, No Iterations 100
GAMG:  Solving for p, Initial residual = 2.888014e-05, Final residual = 3.695947e-06, No Iterations 100
time step continuity errors : sum local = 2.454672e-06, global = 8.219018e-09, cumulative = 9.061002e-08
DILUPBiCGStab:  Solving for omega, Initial residual = 4.738037e-05, Final residual = 9.945266e-07, No Iterations 1
DILUPBiCGStab:  Solving for k, Initial residual = 0.009825175, Final residual = 0.00029691, No Iterations 1
ExecutionTime = 14.29 s  ClockTime = 15 s

forceCoeffs forceCoefficientMonitorOnLowerUpperTipInDefault write:
    Coefficient	Total	Pressure	Viscous	Internal
    Cd:	0.007596632	0.004331941	0.003264691	0
    Cd(f):	0.003798316	0.00216597	0.001632346	0
    Cd(r):	0.003798316	0.00216597	0.001632346	0
    Cl:	-8.440416e-06	2.864904e-07	-8.726906e-06	0
    Cl(f):	-1.625218e-05	-1.183036e-05	-4.421817e-06	0
    Cl(r):	7.81176e-06	1.211685e-05	-4.305089e-06	0
    CmPitch:	-1.203197e-05	-1.19736e-05	-5.836369e-08	0
    CmRoll:	-3.239917e-23	4.594665e-24	-3.699383e-23	0
    CmYaw:	2.064127e-20	2.062273e-20	1.854809e-23	0
    Cs:	1.695961e-20	3.35875e-23	1.692603e-20	0
    Cs(f):	2.912108e-20	2.063952e-20	8.481562e-21	0
    Cs(r):	-1.216147e-20	-2.060593e-20	8.444466e-21	0

    writing force and moment coefficient files.

Time = 25

DILUPBiCGStab:  Solving for Ux, Initial residual = 0.0005309193, Final residual = 1.718159e-06, No Iterations 2
DILUPBiCGStab:  Solving for Uz, Initial residual = 0.01130512, Final residual = 6.764671e-05, No Iterations 1
GAMG:  Solving for p, Initial residual = 0.000466812, Final residual = 8.466131e-06, No Iterations 100
GAMG:  Solving for p, Initial residual = 7.98927e-05, Final residual = 4.97403e-06, No Iterations 100
GAMG:  Solving for p, Initial residual = 2.57519e-05, Final residual = 3.334951e-06, No Iterations 100
time step continuity errors : sum local = 2.223958e-06, global = 6.807873e-09, cumulative = 9.74179e-08
DILUPBiCGStab:  Solving for omega, Initial residual = 4.55999e-05, Final residual = 9.549931e-07, No Iterations 1
DILUPBiCGStab:  Solving for k, Initial residual = 0.009361283, Final residual = 0.0002760838, No Iterations 1
ExecutionTime = 14.88 s  ClockTime = 16 s

forceCoeffs forceCoefficientMonitorOnLowerUpperTipInDefault write:
    Coefficient	Total	Pressure	Viscous	Internal
    Cd:	0.007600302	0.004387116	0.003213186	0
    Cd(f):	0.003800151	0.002193558	0.001606593	0
    Cd(r):	0.003800151	0.002193558	0.001606593	0
    Cl:	-9.282708e-06	2.880891e-07	-9.570797e-06	0
    Cl(f):	-1.421929e-05	-9.380868e-06	-4.838425e-06	0
    Cl(r):	4.936585e-06	9.668957e-06	-4.732373e-06	0
    CmPitch:	-9.577939e-06	-9.524913e-06	-5.302616e-08	0
    CmRoll:	-3.254087e-23	4.526878e-24	-3.706775e-23	0
    CmYaw:	2.055317e-20	2.053599e-20	1.718098e-23	0
    Cs:	1.68864e-20	3.12625e-23	1.685513e-20	0
    Cs(f):	2.899637e-20	2.055162e-20	8.444748e-21	0
    Cs(r):	-1.210997e-20	-2.052036e-20	8.410386e-21	0

    writing force and moment coefficient files.

Time = 26

DILUPBiCGStab:  Solving for Ux, Initial residual = 0.0005042293, Final residual = 1.531736e-06, No Iterations 2
DILUPBiCGStab:  Solving for Uz, Initial residual = 0.0111614, Final residual = 6.195744e-05, No Iterations 1
GAMG:  Solving for p, Initial residual = 0.0004152822, Final residual = 7.695742e-06, No Iterations 100
GAMG:  Solving for p, Initial residual = 7.224471e-05, Final residual = 4.523473e-06, No Iterations 100
GAMG:  Solving for p, Initial residual = 2.330307e-05, Final residual = 3.041638e-06, No Iterations 100
time step continuity errors : sum local = 2.036229e-06, global = 5.676623e-09, cumulative = 1.030945e-07
DILUPBiCGStab:  Solving for omega, Initial residual = 4.395544e-05, Final residual = 9.206939e-07, No Iterations 1
DILUPBiCGStab:  Solving for k, Initial residual = 0.008942471, Final residual = 0.0002573106, No Iterations 1
ExecutionTime = 15.48 s  ClockTime = 16 s

forceCoeffs forceCoefficientMonitorOnLowerUpperTipInDefault write:
    Coefficient	Total	Pressure	Viscous	Internal
    Cd:	0.007603745	0.004437775	0.00316597	0
    Cd(f):	0.003801872	0.002218887	0.001582985	0
    Cd(r):	0.003801872	0.002218887	0.001582985	0
    Cl:	-1.036941e-05	2.83788e-07	-1.06532e-05	0
    Cl(f):	-1.229283e-05	-6.918422e-06	-5.374403e-06	0
    Cl(r):	1.923417e-06	7.20221e-06	-5.278793e-06	0
    CmPitch:	-7.108121e-06	-7.060316e-06	-4.780508e-08	0
    CmRoll:	-3.247839e-23	4.461056e-24	-3.693945e-23	0
    CmYaw:	2.046173e-20	2.044601e-20	1.571277e-23	0
    Cs:	1.681044e-20	2.890071e-23	1.678154e-20	0
    Cs(f):	2.886694e-20	2.046046e-20	8.406482e-21	0
    Cs(r):	-1.205651e-20	-2.043156e-20	8.375056e-21	0

    writing force and moment coefficient files.

Time = 27

DILUPBiCGStab:  Solving for Ux, Initial residual = 0.0004802684, Final residual = 1.38778e-06, No Iterations 2
DILUPBiCGStab:  Solving for Uz, Initial residual = 0.01102822, Final residual = 5.707134e-05, No Iterations 1
GAMG:  Solving for p, Initial residual = 0.0003736467, Final residual = 7.078342e-06, No Iterations 100
GAMG:  Solving for p, Initial residual = 6.590202e-05, Final residual = 4.113469e-06, No Iterations 100
GAMG:  Solving for p, Initial residual = 2.11934e-05, Final residual = 2.776001e-06, No Iterations 100
time step continuity errors : sum local = 1.865269e-06, global = 4.772816e-09, cumulative = 1.078673e-07
DILUPBiCGStab:  Solving for omega, Initial residual = 4.23952e-05, Final residual = 8.887465e-07, No Iterations 1
DILUPBiCGStab:  Solving for k, Initial residual = 0.008562657, Final residual = 0.0002403224, No Iterations 1
ExecutionTime = 16.07 s  ClockTime = 17 s

forceCoeffs forceCoefficientMonitorOnLowerUpperTipInDefault write:
    Coefficient	Total	Pressure	Viscous	Internal
    Cd:	0.007606179	0.00448417	0.003122009	0
    Cd(f):	0.00380309	0.002242085	0.001561005	0
    Cd(r):	0.00380309	0.002242085	0.001561005	0
    Cl:	-1.170029e-05	2.75157e-07	-1.197545e-05	0
    Cl(f):	-1.051228e-05	-4.481398e-06	-6.030883e-06	0
    Cl(r):	-1.188008e-06	4.756555e-06	-5.944562e-06	0
    CmPitch:	-4.662136e-06	-4.618976e-06	-4.316039e-08	0
    CmRoll:	-3.231665e-23	4.397816e-24	-3.671446e-23	0
    CmYaw:	2.036775e-20	2.035359e-20	1.415906e-23	0
    Cs:	1.673244e-20	2.653915e-23	1.67059e-20	0
    Cs(f):	2.873398e-20	2.036686e-20	8.367112e-21	0
    Cs(r):	-1.200153e-20	-2.034033e-20	8.338793e-21	0

    writing force and moment coefficient files.

Time = 28

DILUPBiCGStab:  Solving for Ux, Initial residual = 0.0004589185, Final residual = 1.270757e-06, No Iterations 2
DILUPBiCGStab:  Solving for Uz, Initial residual = 0.01090409, Final residual = 5.286427e-05, No Iterations 1
GAMG:  Solving for p, Initial residual = 0.0003369846, Final residual = 6.552956e-06, No Iterations 100
GAMG:  Solving for p, Initial residual = 6.056245e-05, Final residual = 3.787404e-06, No Iterations 100
GAMG:  Solving for p, Initial residual = 1.940066e-05, Final residual = 2.563589e-06, No Iterations 100
time step continuity errors : sum local = 1.728631e-06, global = 3.974905e-09, cumulative = 1.118422e-07
DILUPBiCGStab:  Solving for omega, Initial residual = 4.093515e-05, Final residual = 8.619095e-07, No Iterations 1
DILUPBiCGStab:  Solving for k, Initial residual = 0.008216932, Final residual = 0.0002248971, No Iterations 1
ExecutionTime = 16.67 s  ClockTime = 18 s

forceCoeffs forceCoefficientMonitorOnLowerUpperTipInDefault write:
    Coefficient	Total	Pressure	Viscous	Internal
    Cd:	0.007607169	0.004526578	0.003080591	0
    Cd(f):	0.003803584	0.002263289	0.001540296	0
    Cd(r):	0.003803584	0.002263289	0.001540296	0
    Cl:	-1.326744e-05	2.635149e-07	-1.353096e-05	0
    Cl(f):	-8.857036e-06	-2.052228e-06	-6.804808e-06	0
    Cl(r):	-4.410409e-06	2.315743e-06	-6.726151e-06	0
    CmPitch:	-2.223313e-06	-2.183985e-06	-3.932822e-08	0
    CmRoll:	-3.211249e-23	4.336468e-24	-3.644896e-23	0
    CmYaw:	2.027024e-20	2.025756e-20	1.268488e-23	0
    Cs:	1.665166e-20	2.438321e-23	1.662728e-20	0
    Cs(f):	2.859607e-20	2.026975e-20	8.326322e-21	0
    Cs(r):	-1.194441e-20	-2.024537e-20	8.300953e-21	0

    writing force and moment coefficient files.

Time = 29

DILUPBiCGStab:  Solving for Ux, Initial residual = 0.0004400265, Final residual = 1.167505e-06, No Iterations 2
DILUPBiCGStab:  Solving for Uz, Initial residual = 0.01078838, Final residual = 4.922755e-05, No Iterations 1
GAMG:  Solving for p, Initial residual = 0.0003061004, Final residual = 6.014451e-06, No Iterations 100
GAMG:  Solving for p, Initial residual = 5.572056e-05, Final residual = 3.497566e-06, No Iterations 100
GAMG:  Solving for p, Initial residual = 1.783469e-05, Final residual = 2.380316e-06, No Iterations 100
time step continuity errors : sum local = 1.610486e-06, global = 3.19915e-09, cumulative = 1.150414e-07
DILUPBiCGStab:  Solving for omega, Initial residual = 3.972039e-05, Final residual = 8.400898e-07, No Iterations 1
DILUPBiCGStab:  Solving for k, Initial residual = 0.007903864, Final residual = 0.0002109291, No Iterations 1
ExecutionTime = 17.33 s  ClockTime = 18 s

forceCoeffs forceCoefficientMonitorOnLowerUpperTipInDefault write:
    Coefficient	Total	Pressure	Viscous	Internal
    Cd:	0.007606571	0.004565227	0.003041343	0
    Cd(f):	0.003803285	0.002282614	0.001520672	0
    Cd(r):	0.003803285	0.002282614	0.001520672	0
    Cl:	-1.522263e-05	2.498797e-07	-1.547251e-05	0
    Cl(f):	-7.283915e-06	4.886701e-07	-7.772585e-06	0
    Cl(r):	-7.938714e-06	-2.387904e-07	-7.699923e-06	0
    CmPitch:	3.273992e-07	3.637303e-07	-3.633102e-08	0
    CmRoll:	-3.187102e-23	4.276492e-24	-3.614751e-23	0
    CmYaw:	2.016884e-20	2.015729e-20	1.154924e-23	0
    Cs:	1.656782e-20	2.266882e-23	1.654516e-20	0
    Cs(f):	2.845275e-20	2.016862e-20	8.284127e-21	0
    Cs(r):	-1.188493e-20	-2.014596e-20	8.261028e-21	0

    writing force and moment coefficient files.

Time = 30

DILUPBiCGStab:  Solving for Ux, Initial residual = 0.0004233815, Final residual = 1.074558e-06, No Iterations 2
DILUPBiCGStab:  Solving for Uz, Initial residual = 0.01068186, Final residual = 4.608202e-05, No Iterations 1
GAMG:  Solving for p, Initial residual = 0.0002780245, Final residual = 5.371007e-06, No Iterations 100
GAMG:  Solving for p, Initial residual = 5.100093e-05, Final residual = 3.140446e-06, No Iterations 100
GAMG:  Solving for p, Initial residual = 1.632815e-05, Final residual = 2.13564e-06, No Iterations 100
time step continuity errors : sum local = 1.449855e-06, global = 2.415958e-09, cumulative = 1.174573e-07
DILUPBiCGStab:  Solving for omega, Initial residual = 3.858767e-05, Final residual = 8.188227e-07, No Iterations 1
DILUPBiCGStab:  Solving for k, Initial residual = 0.007614159, Final residual = 0.0001980898, No Iterations 1
ExecutionTime = 17.93 s  ClockTime = 19 s

forceCoeffs forceCoefficientMonitorOnLowerUpperTipInDefault write:
    Coefficient	Total	Pressure	Viscous	Internal
    Cd:	0.007604068	0.004600254	0.003003814	0
    Cd(f):	0.003802034	0.002300127	0.001501907	0
    Cd(r):	0.003802034	0.002300127	0.001501907	0
    Cl:	-1.73431e-05	2.349587e-07	-1.757806e-05	0
    Cl(f):	-5.858854e-06	2.964284e-06	-8.823137e-06	0
    Cl(r):	-1.148424e-05	-2.729325e-06	-8.754918e-06	0
    CmPitch:	2.812695e-06	2.846804e-06	-3.410979e-08	0
    CmRoll:	-3.158576e-23	4.218868e-24	-3.580463e-23	0
    CmYaw:	2.006644e-20	2.005586e-20	1.058805e-23	0
    Cs:	1.648329e-20	2.122506e-23	1.646206e-20	0
    Cs(f):	2.830809e-20	2.006647e-20	8.24162e-21	0
    Cs(r):	-1.18248e-20	-2.004524e-20	8.220444e-21	0

    writing force and moment coefficient files.

Time = 31

DILUPBiCGStab:  Solving for Ux, Initial residual = 0.0004088008, Final residual = 9.881544e-07, No Iterations 2
DILUPBiCGStab:  Solving for Uz, Initial residual = 0.01058196, Final residual = 4.332915e-05, No Iterations 1
GAMG:  Solving for p, Initial residual = 0.0002533452, Final residual = 4.632038e-06, No Iterations 100
GAMG:  Solving for p, Initial residual = 4.658086e-05, Final residual = 2.718065e-06, No Iterations 100
GAMG:  Solving for p, Initial residual = 1.482934e-05, Final residual = 1.842402e-06, No Iterations 100
time step continuity errors : sum local = 1.254686e-06, global = 1.621343e-09, cumulative = 1.190787e-07
DILUPBiCGStab:  Solving for omega, Initial residual = 3.748431e-05, Final residual = 8.007202e-07, No Iterations 1
DILUPBiCGStab:  Solving for k, Initial residual = 0.007350969, Final residual = 0.0001864329, No Iterations 1
ExecutionTime = 18.59 s  ClockTime = 20 s

forceCoeffs forceCoefficientMonitorOnLowerUpperTipInDefault write:
    Coefficient	Total	Pressure	Viscous	Internal
    Cd:	0.007599414	0.004631749	0.002967665	0
    Cd(f):	0.003799707	0.002315875	0.001483833	0
    Cd(r):	0.003799707	0.002315875	0.001483833	0
    Cl:	-1.959872e-05	2.19046e-07	-1.981776e-05	0
    Cl(f):	-4.59909e-06	5.342236e-06	-9.941327e-06	0
    Cl(r):	-1.499963e-05	-5.12319e-06	-9.876435e-06	0
    CmPitch:	5.200267e-06	5.232713e-06	-3.244602e-08	0
    CmRoll:	-3.125307e-23	4.16379e-24	-3.541686e-23	0
    CmYaw:	1.996395e-20	1.995414e-20	9.807545e-24	0
    Cs:	1.639874e-20	2.001351e-23	1.637873e-20	0
    Cs(f):	2.816332e-20	1.996415e-20	8.199173e-21	0
    Cs(r):	-1.176458e-20	-1.994413e-20	8.179558e-21	0

    writing force and moment coefficient files.

Time = 32

DILUPBiCGStab:  Solving for Ux, Initial residual = 0.0003961869, Final residual = 9.075884e-07, No Iterations 2
DILUPBiCGStab:  Solving for Uz, Initial residual = 0.01048736, Final residual = 4.097199e-05, No Iterations 1
GAMG:  Solving for p, Initial residual = 0.0002324508, Final residual = 3.866333e-06, No Iterations 100
GAMG:  Solving for p, Initial residual = 4.242171e-05, Final residual = 2.237229e-06, No Iterations 100
GAMG:  Solving for p, Initial residual = 1.336248e-05, Final residual = 1.511523e-06, No Iterations 100
time step continuity errors : sum local = 1.032663e-06, global = 9.179413e-10, cumulative = 1.199966e-07
DILUPBiCGStab:  Solving for omega, Initial residual = 3.641508e-05, Final residual = 7.825581e-07, No Iterations 1
DILUPBiCGStab:  Solving for k, Initial residual = 0.00710534, Final residual = 0.0001756586, No Iterations 1
ExecutionTime = 19.21 s  ClockTime = 20 s

forceCoeffs forceCoefficientMonitorOnLowerUpperTipInDefault write:
    Coefficient	Total	Pressure	Viscous	Internal
    Cd:	0.007592782	0.004659883	0.0029329	0
    Cd(f):	0.003796391	0.002329941	0.00146645	0
    Cd(r):	0.003796391	0.002329941	0.00146645	0
    Cl:	-2.181467e-05	2.027703e-07	-2.201744e-05	0
    Cl(f):	-3.520617e-06	7.51946e-06	-1.104008e-05	0
    Cl(r):	-1.829406e-05	-7.31669e-06	-1.097737e-05	0
    CmPitch:	7.386719e-06	7.418075e-06	-3.135576e-08	0
    CmRoll:	-3.086175e-23	4.111278e-24	-3.497303e-23	0
    CmYaw:	1.986106e-20	1.985196e-20	9.100469e-24	0
    Cs:	1.631394e-20	1.8938e-23	1.6295e-20	0
    Cs(f):	2.801803e-20	1.986143e-20	8.156603e-21	0
    Cs(r):	-1.170409e-20	-1.984249e-20	8.138402e-21	0

    writing force and moment coefficient files.

Time = 33

DILUPBiCGStab:  Solving for Ux, Initial residual = 0.0003850174, Final residual = 8.3204e-07, No Iterations 2
DILUPBiCGStab:  Solving for Uz, Initial residual = 0.01040011, Final residual = 3.899457e-05, No Iterations 1
GAMG:  Solving for p, Initial residual = 0.0002151354, Final residual = 3.102805e-06, No Iterations 100
GAMG:  Solving for p, Initial residual = 3.890526e-05, Final residual = 1.744514e-06, No Iterations 100
GAMG:  Solving for p, Initial residual = 1.196225e-05, Final residual = 1.168672e-06, No Iterations 100
time step continuity errors : sum local = 8.007524e-07, global = 2.99884e-10, cumulative = 1.202965e-07
DILUPBiCGStab:  Solving for omega, Initial residual = 3.537548e-05, Final residual = 7.635344e-07, No Iterations 1
DILUPBiCGStab:  Solving for k, Initial residual = 0.006878251, Final residual = 0.0001657653, No Iterations 1
ExecutionTime = 19.8 s  ClockTime = 21 s

forceCoeffs forceCoefficientMonitorOnLowerUpperTipInDefault write:
    Coefficient	Total	Pressure	Viscous	Internal
    Cd:	0.007584511	0.00468484	0.00289967	0
    Cd(f):	0.003792255	0.00234242	0.001449835	0
    Cd(r):	0.003792255	0.00234242	0.001449835	0
    Cl:	-2.389749e-05	1.865376e-07	-2.408403e-05	0
    Cl(f):	-2.606812e-06	9.466015e-06	-1.207283e-05	0
    Cl(r):	-2.129068e-05	-9.279477e-06	-1.20112e-05	0
    CmPitch:	9.341933e-06	9.372746e-06	-3.081324e-08	0
    CmRoll:	-3.042971e-23	4.060877e-24	-3.449059e-23	0
    CmYaw:	1.97567e-20	1.974826e-20	8.43585e-24	0
    Cs:	1.622794e-20	1.791498e-23	1.621002e-20	0
    Cs(f):	2.787067e-20	1.975722e-20	8.113447e-21	0
    Cs(r):	-1.164273e-20	-1.97393e-20	8.096575e-21	0

    writing force and moment coefficient files.

Time = 34

DILUPBiCGStab:  Solving for Ux, Initial residual = 0.0003750413, Final residual = 7.613645e-07, No Iterations 2
DILUPBiCGStab:  Solving for Uz, Initial residual = 0.01031879, Final residual = 3.730581e-05, No Iterations 1
GAMG:  Solving for p, Initial residual = 0.0001995936, Final residual = 2.348759e-06, No Iterations 100
GAMG:  Solving for p, Initial residual = 3.562761e-05, Final residual = 1.260726e-06, No Iterations 100
GAMG:  Solving for p, Initial residual = 1.067934e-05, Final residual = 8.306944e-07, No Iterations 100
time step continuity errors : sum local = 5.707774e-07, global = -1.927553e-10, cumulative = 1.201038e-07
DILUPBiCGStab:  Solving for omega, Initial residual = 3.452462e-05, Final residual = 7.456928e-07, No Iterations 1
DILUPBiCGStab:  Solving for k, Initial residual = 0.006670844, Final residual = 0.0001567621, No Iterations 1
ExecutionTime = 20.43 s  ClockTime = 22 s

forceCoeffs forceCoefficientMonitorOnLowerUpperTipInDefault write:
    Coefficient	Total	Pressure	Viscous	Internal
    Cd:	0.007575059	0.004706954	0.002868105	0
    Cd(f):	0.00378753	0.002353477	0.001434053	0
    Cd(r):	0.00378753	0.002353477	0.001434053	0
    Cl:	-2.572583e-05	1.708283e-07	-2.589666e-05	0
    Cl(f):	-1.854442e-06	1.112454e-05	-1.297898e-05	0
    Cl(r):	-2.387139e-05	-1.095371e-05	-1.291768e-05	0
    CmPitch:	1.100847e-05	1.103912e-05	-3.064944e-08	0
    CmRoll:	-2.99041e-23	4.012775e-24	-3.391688e-23	0
    CmYaw:	1.965189e-20	1.964408e-20	7.812559e-24	0
    Cs:	1.614158e-20	1.694492e-23	1.612464e-20	0
    Cs(f):	2.772268e-20	1.965255e-20	8.070131e-21	0
    Cs(r):	-1.15811e-20	-1.963561e-20	8.054505e-21	0

    writing force and moment coefficient files.

Time = 35

DILUPBiCGStab:  Solving for Ux, Initial residual = 0.0003659449, Final residual = 6.996971e-07, No Iterations 2
DILUPBiCGStab:  Solving for Uz, Initial residual = 0.01024201, Final residual = 3.582829e-05, No Iterations 1
GAMG:  Solving for p, Initial residual = 0.0001848751, Final residual = 1.842217e-06, No Iterations 93
GAMG:  Solving for p, Initial residual = 3.280886e-05, Final residual = 8.436086e-07, No Iterations 100
GAMG:  Solving for p, Initial residual = 9.597189e-06, Final residual = 5.413452e-07, No Iterations 100
time step continuity errors : sum local = 3.730754e-07, global = -6.737471e-10, cumulative = 1.1943e-07
DILUPBiCGStab:  Solving for omega, Initial residual = 3.374873e-05, Final residual = 7.284045e-07, No Iterations 1
DILUPBiCGStab:  Solving for k, Initial residual = 0.006478259, Final residual = 0.0001485049, No Iterations 1
ExecutionTime = 21.02 s  ClockTime = 22 s

forceCoeffs forceCoefficientMonitorOnLowerUpperTipInDefault write:
    Coefficient	Total	Pressure	Viscous	Internal
    Cd:	0.007564828	0.004726638	0.00283819	0
    Cd(f):	0.003782414	0.002363319	0.001419095	0
    Cd(r):	0.003782414	0.002363319	0.001419095	0
    Cl:	-2.71373e-05	1.560151e-07	-2.729332e-05	0
    Cl(f):	-1.252691e-06	1.242471e-05	-1.36774e-05	0
    Cl(r):	-2.588461e-05	-1.22687e-05	-1.361592e-05	0
    CmPitch:	1.231596e-05	1.234671e-05	-3.074411e-08	0
    CmRoll:	-2.929558e-23	3.96709e-24	-3.326267e-23	0
    CmYaw:	1.95472e-20	1.953997e-20	7.234367e-24	0
    Cs:	1.605533e-20	1.603128e-23	1.60393e-20	0
    Cs(f):	2.757486e-20	1.954798e-20	8.026882e-21	0
    Cs(r):	-1.151954e-20	-1.953195e-20	8.012414e-21	0

    writing force and moment coefficient files.

Time = 36

DILUPBiCGStab:  Solving for Ux, Initial residual = 0.0003574457, Final residual = 6.516721e-07, No Iterations 2
DILUPBiCGStab:  Solving for Uz, Initial residual = 0.01017009, Final residual = 3.449755e-05, No Iterations 1
GAMG:  Solving for p, Initial residual = 0.0001718087, Final residual = 1.692628e-06, No Iterations 90
GAMG:  Solving for p, Initial residual = 3.09521e-05, Final residual = 5.475486e-07, No Iterations 100
GAMG:  Solving for p, Initial residual = 8.733304e-06, Final residual = 3.212943e-07, No Iterations 100
time step continuity errors : sum local = 2.220889e-07, global = -9.500275e-10, cumulative = 1.1848e-07
DILUPBiCGStab:  Solving for omega, Initial residual = 3.297448e-05, Final residual = 7.145424e-07, No Iterations 1
DILUPBiCGStab:  Solving for k, Initial residual = 0.006295444, Final residual = 0.0001407931, No Iterations 1
ExecutionTime = 21.6 s  ClockTime = 23 s

forceCoeffs forceCoefficientMonitorOnLowerUpperTipInDefault write:
    Coefficient	Total	Pressure	Viscous	Internal
    Cd:	0.007554214	0.004744283	0.002809931	0
    Cd(f):	0.003777107	0.002372141	0.001404965	0
    Cd(r):	0.003777107	0.002372141	0.001404965	0
    Cl:	-2.806699e-05	1.424846e-07	-2.820947e-05	0
    Cl(f):	-7.698761e-07	1.336594e-05	-1.413582e-05	0
    Cl(r):	-2.729711e-05	-1.322346e-05	-1.407365e-05	0
    CmPitch:	1.326362e-05	1.32947e-05	-3.108157e-08	0
    CmRoll:	-2.862409e-23	3.92357e-24	-3.254766e-23	0
    CmYaw:	1.944267e-20	1.943594e-20	6.726929e-24	0
    Cs:	1.596925e-20	1.522759e-23	1.595402e-20	0
    Cs(f):	2.742729e-20	1.944355e-20	7.983738e-21	0
    Cs(r):	-1.145804e-20	-1.942833e-20	7.970284e-21	0

    writing force and moment coefficient files.

Time = 37

DILUPBiCGStab:  Solving for Ux, Initial residual = 0.0003495396, Final residual = 6.164968e-07, No Iterations 2
DILUPBiCGStab:  Solving for Uz, Initial residual = 0.01010271, Final residual = 3.333166e-05, No Iterations 1
GAMG:  Solving for p, Initial residual = 0.0001607097, Final residual = 1.596741e-06, No Iterations 94
GAMG:  Solving for p, Initial residual = 2.934475e-05, Final residual = 5.401831e-07, No Iterations 100
GAMG:  Solving for p, Initial residual = 8.214716e-06, Final residual = 3.084722e-07, No Iterations 100
time step continuity errors : sum local = 2.137726e-07, global = -9.540052e-10, cumulative = 1.17526e-07
DILUPBiCGStab:  Solving for omega, Initial residual = 3.219554e-05, Final residual = 7.012401e-07, No Iterations 1
DILUPBiCGStab:  Solving for k, Initial residual = 0.006128352, Final residual = 0.0001337136, No Iterations 1
ExecutionTime = 22.18 s  ClockTime = 23 s

forceCoeffs forceCoefficientMonitorOnLowerUpperTipInDefault write:
    Coefficient	Total	Pressure	Viscous	Internal
    Cd:	0.007543689	0.004760228	0.002783461	0
    Cd(f):	0.003771845	0.002380114	0.001391731	0
    Cd(r):	0.003771845	0.002380114	0.001391731	0
    Cl:	-2.847288e-05	1.303774e-07	-2.860326e-05	0
    Cl(f):	-3.973977e-07	1.393581e-05	-1.433321e-05	0
    Cl(r):	-2.807548e-05	-1.380544e-05	-1.427004e-05	0
    CmPitch:	1.383904e-05	1.387062e-05	-3.158289e-08	0
    CmRoll:	-2.79032e-23	3.881644e-24	-3.178484e-23	0
    CmYaw:	1.933804e-20	1.933182e-20	6.222494e-24	0
    Cs:	1.588312e-20	1.44605e-23	1.586866e-20	0
    Cs(f):	2.72796e-20	1.933905e-20	7.940552e-21	0
    Cs(r):	-1.139648e-20	-1.932459e-20	7.928107e-21	0

    writing force and moment coefficient files.

Time = 38

DILUPBiCGStab:  Solving for Ux, Initial residual = 0.0003421106, Final residual = 5.910658e-07, No Iterations 2
DILUPBiCGStab:  Solving for Uz, Initial residual = 0.01003929, Final residual = 3.226492e-05, No Iterations 1
GAMG:  Solving for p, Initial residual = 0.0001506538, Final residual = 1.58429e-06, No Iterations 100
GAMG:  Solving for p, Initial residual = 2.783515e-05, Final residual = 6.77933e-07, No Iterations 100
GAMG:  Solving for p, Initial residual = 7.890533e-06, Final residual = 4.052499e-07, No Iterations 100
time step continuity errors : sum local = 2.81679e-07, global = -7.292242e-10, cumulative = 1.167968e-07
DILUPBiCGStab:  Solving for omega, Initial residual = 3.147577e-05, Final residual = 6.856928e-07, No Iterations 1
DILUPBiCGStab:  Solving for k, Initial residual = 0.005972115, Final residual = 0.0001271045, No Iterations 1
ExecutionTime = 22.8 s  ClockTime = 24 s

forceCoeffs forceCoefficientMonitorOnLowerUpperTipInDefault write:
    Coefficient	Total	Pressure	Viscous	Internal
    Cd:	0.007533715	0.00477474	0.002758975	0
    Cd(f):	0.003766857	0.00238737	0.001379488	0
    Cd(r):	0.003766857	0.00238737	0.001379488	0
    Cl:	-2.830288e-05	1.196633e-07	-2.842254e-05	0
    Cl(f):	-1.351699e-07	1.410822e-05	-1.424339e-05	0
    Cl(r):	-2.816771e-05	-1.398856e-05	-1.417915e-05	0
    CmPitch:	1.401627e-05	1.404839e-05	-3.212041e-08	0
    CmRoll:	-2.714497e-23	3.841106e-24	-3.098608e-23	0
    CmYaw:	1.923376e-20	1.922801e-20	5.75436e-24	0
    Cs:	1.579733e-20	1.378119e-23	1.578355e-20	0
    Cs(f):	2.713243e-20	1.92349e-20	7.897531e-21	0
    Cs(r):	-1.13351e-20	-1.922112e-20	7.886022e-21	0

    writing force and moment coefficient files.

Time = 39

DILUPBiCGStab:  Solving for Ux, Initial residual = 0.0003351349, Final residual = 5.71267e-07, No Iterations 2
DILUPBiCGStab:  Solving for Uz, Initial residual = 0.009980654, Final residual = 3.126385e-05, No Iterations 1
GAMG:  Solving for p, Initial residual = 0.0001417718, Final residual = 1.727914e-06, No Iterations 100
GAMG:  Solving for p, Initial residual = 2.657368e-05, Final residual = 8.266018e-07, No Iterations 100
GAMG:  Solving for p, Initial residual = 7.585925e-06, Final residual = 5.037579e-07, No Iterations 100
time step continuity errors : sum local = 3.512388e-07, global = -5.449744e-10, cumulative = 1.162518e-07
DILUPBiCGStab:  Solving for omega, Initial residual = 3.086523e-05, Final residual = 6.697086e-07, No Iterations 1
DILUPBiCGStab:  Solving for k, Initial residual = 0.005821388, Final residual = 0.0001208061, No Iterations 1
ExecutionTime = 23.41 s  ClockTime = 25 s

forceCoeffs forceCoefficientMonitorOnLowerUpperTipInDefault write:
    Coefficient	Total	Pressure	Viscous	Internal
    Cd:	0.007524574	0.004788042	0.002736532	0
    Cd(f):	0.003762287	0.002394021	0.001368266	0
    Cd(r):	0.003762287	0.002394021	0.001368266	0
    Cl:	-2.75667e-05	1.10255e-07	-2.767696e-05	0
    Cl(f):	3.226718e-08	1.39034e-05	-1.387114e-05	0
    Cl(r):	-2.759897e-05	-1.379315e-05	-1.380582e-05	0
    CmPitch:	1.381562e-05	1.384828e-05	-3.265955e-08	0
    CmRoll:	-2.635667e-23	3.801883e-24	-3.015856e-23	0
    CmYaw:	1.913055e-20	1.912519e-20	5.3596e-24	0
    Cs:	1.571244e-20	1.319451e-23	1.569925e-20	0
    Cs(f):	2.698677e-20	1.913179e-20	7.854985e-21	0
    Cs(r):	-1.127433e-20	-1.911859e-20	7.844265e-21	0

    writing force and moment coefficient files.

Time = 40

DILUPBiCGStab:  Solving for Ux, Initial residual = 0.0003286673, Final residual = 5.541463e-07, No Iterations 2
DILUPBiCGStab:  Solving for Uz, Initial residual = 0.009926599, Final residual = 3.031024e-05, No Iterations 1
GAMG:  Solving for p, Initial residual = 0.0001333042, Final residual = 1.887571e-06, No Iterations 100
GAMG:  Solving for p, Initial residual = 2.544058e-05, Final residual = 9.529288e-07, No Iterations 100
GAMG:  Solving for p, Initial residual = 7.311417e-06, Final residual = 5.849577e-07, No Iterations 100
time step continuity errors : sum local = 4.088255e-07, global = -2.602875e-10, cumulative = 1.159915e-07
DILUPBiCGStab:  Solving for omega, Initial residual = 3.030399e-05, Final residual = 6.570501e-07, No Iterations 1
DILUPBiCGStab:  Solving for k, Initial residual = 0.005688597, Final residual = 0.0001151181, No Iterations 1
ExecutionTime = 24 s  ClockTime = 25 s

forceCoeffs forceCoefficientMonitorOnLowerUpperTipInDefault write:
    Coefficient	Total	Pressure	Viscous	Internal
    Cd:	0.007516554	0.00480033	0.002716225	0
    Cd(f):	0.003758277	0.002400165	0.001358112	0
    Cd(r):	0.003758277	0.002400165	0.001358112	0
    Cl:	-2.624688e-05	1.02032e-07	-2.634891e-05	0
    Cl(f):	1.042254e-07	1.331192e-05	-1.32077e-05	0
    Cl(r):	-2.63511e-05	-1.320989e-05	-1.314121e-05	0
    CmPitch:	1.322766e-05	1.32609e-05	-3.324023e-08	0
    CmRoll:	-2.553224e-23	3.763745e-24	-2.929598e-23	0
    CmYaw:	1.902875e-20	1.902374e-20	5.015969e-24	0
    Cs:	1.562875e-20	1.268498e-23	1.561606e-20	0
    Cs(f):	2.684313e-20	1.903008e-20	7.813047e-21	0
    Cs(r):	-1.121438e-20	-1.901739e-20	7.803015e-21	0

    writing force and moment coefficient files.

Time = 41

DILUPBiCGStab:  Solving for Ux, Initial residual = 0.0003227943, Final residual = 5.381247e-07, No Iterations 2
DILUPBiCGStab:  Solving for Uz, Initial residual = 0.009876268, Final residual = 2.941197e-05, No Iterations 1
GAMG:  Solving for p, Initial residual = 0.0001255706, Final residual = 2.016686e-06, No Iterations 100
GAMG:  Solving for p, Initial residual = 2.42842e-05, Final residual = 1.054815e-06, No Iterations 100
GAMG:  Solving for p, Initial residual = 7.066123e-06, Final residual = 6.45767e-07, No Iterations 100
time step continuity errors : sum local = 4.534086e-07, global = -9.076793e-11, cumulative = 1.159007e-07
DILUPBiCGStab:  Solving for omega, Initial residual = 2.978342e-05, Final residual = 6.445388e-07, No Iterations 1
DILUPBiCGStab:  Solving for k, Initial residual = 0.005555775, Final residual = 0.0001095538, No Iterations 1
ExecutionTime = 24.65 s  ClockTime = 26 s

forceCoeffs forceCoefficientMonitorOnLowerUpperTipInDefault write:
    Coefficient	Total	Pressure	Viscous	Internal
    Cd:	0.007509911	0.004811766	0.002698145	0
    Cd(f):	0.003754955	0.002405883	0.001349072	0
    Cd(r):	0.003754955	0.002405883	0.001349072	0
    Cl:	-2.444009e-05	9.481907e-08	-2.453491e-05	0
    Cl(f):	1.097498e-07	1.241101e-05	-1.230126e-05	0
    Cl(r):	-2.454984e-05	-1.231619e-05	-1.223364e-05	0
    CmPitch:	1.232979e-05	1.23636e-05	-3.380924e-08	0
    CmRoll:	-2.468015e-23	3.726273e-24	-2.840642e-23	0
    CmYaw:	1.892751e-20	1.89228e-20	4.703699e-24	0
    Cs:	1.554553e-20	1.223633e-23	1.55333e-20	0
    Cs(f):	2.670027e-20	1.892892e-20	7.771351e-21	0
    Cs(r):	-1.115474e-20	-1.891669e-20	7.761944e-21	0

    writing force and moment coefficient files.

Time = 42

DILUPBiCGStab:  Solving for Ux, Initial residual = 0.0003172944, Final residual = 5.230764e-07, No Iterations 2
DILUPBiCGStab:  Solving for Uz, Initial residual = 0.009829737, Final residual = 2.856369e-05, No Iterations 1
GAMG:  Solving for p, Initial residual = 0.0001186388, Final residual = 2.096675e-06, No Iterations 100
GAMG:  Solving for p, Initial residual = 2.322236e-05, Final residual = 1.13729e-06, No Iterations 100
GAMG:  Solving for p, Initial residual = 6.82673e-06, Final residual = 6.922628e-07, No Iterations 100
time step continuity errors : sum local = 4.878791e-07, global = 2.293124e-10, cumulative = 1.1613e-07
DILUPBiCGStab:  Solving for omega, Initial residual = 2.920351e-05, Final residual = 6.34404e-07, No Iterations 1
DILUPBiCGStab:  Solving for k, Initial residual = 0.005429502, Final residual = 0.0001043366, No Iterations 1
ExecutionTime = 25.24 s  ClockTime = 27 s

forceCoeffs forceCoefficientMonitorOnLowerUpperTipInDefault write:
    Coefficient	Total	Pressure	Viscous	Internal
    Cd:	0.007504828	0.0048225	0.002682328	0
    Cd(f):	0.003752414	0.00241125	0.001341164	0
    Cd(r):	0.003752414	0.00241125	0.001341164	0
    Cl:	-2.214644e-05	8.852105e-08	-2.223496e-05	0
    Cl(f):	4.452606e-08	1.119641e-05	-1.115189e-05	0
    Cl(r):	-2.219096e-05	-1.110789e-05	-1.108307e-05	0
    CmPitch:	1.111775e-05	1.115215e-05	-3.440855e-08	0
    CmRoll:	-2.382953e-23	3.689008e-24	-2.751854e-23	0
    CmYaw:	1.882561e-20	1.882121e-20	4.399692e-24	0
    Cs:	1.546179e-20	1.180752e-23	1.544998e-20	0
    Cs(f):	2.65565e-20	1.882711e-20	7.729389e-21	0
    Cs(r):	-1.109472e-20	-1.881531e-20	7.72059e-21	0

    writing force and moment coefficient files.

Time = 43

DILUPBiCGStab:  Solving for Ux, Initial residual = 0.0003123733, Final residual = 5.097814e-07, No Iterations 2
DILUPBiCGStab:  Solving for Uz, Initial residual = 0.009787944, Final residual = 2.774337e-05, No Iterations 1
GAMG:  Solving for p, Initial residual = 0.0001129818, Final residual = 2.152705e-06, No Iterations 100
GAMG:  Solving for p, Initial residual = 2.235747e-05, Final residual = 1.197684e-06, No Iterations 100
GAMG:  Solving for p, Initial residual = 6.60394e-06, Final residual = 7.295207e-07, No Iterations 100
time step continuity errors : sum local = 5.160566e-07, global = 4.534168e-10, cumulative = 1.165835e-07
DILUPBiCGStab:  Solving for omega, Initial residual = 2.862905e-05, Final residual = 6.230567e-07, No Iterations 1
DILUPBiCGStab:  Solving for k, Initial residual = 0.005307695, Final residual = 9.941694e-05, No Iterations 1
ExecutionTime = 25.89 s  ClockTime = 27 s

forceCoeffs forceCoefficientMonitorOnLowerUpperTipInDefault write:
    Coefficient	Total	Pressure	Viscous	Internal
    Cd:	0.007501488	0.004832659	0.002668829	0
    Cd(f):	0.003750744	0.00241633	0.001334414	0
    Cd(r):	0.003750744	0.00241633	0.001334414	0
    Cl:	-1.944379e-05	8.304995e-08	-1.952684e-05	0
    Cl(f):	-7.946668e-08	9.719041e-06	-9.798508e-06	0
    Cl(r):	-1.936432e-05	-9.635991e-06	-9.72833e-06	0
    CmPitch:	9.642427e-06	9.677516e-06	-3.508884e-08	0
    CmRoll:	-2.297999e-23	3.651508e-24	-2.66315e-23	0
    CmYaw:	1.872257e-20	1.871846e-20	4.111852e-24	0
    Cs:	1.537712e-20	1.141043e-23	1.536571e-20	0
    Cs(f):	2.641114e-20	1.872417e-20	7.686967e-21	0
    Cs(r):	-1.103401e-20	-1.871276e-20	7.678744e-21	0

    writing force and moment coefficient files.

Time = 44

DILUPBiCGStab:  Solving for Ux, Initial residual = 0.0003079572, Final residual = 4.989107e-07, No Iterations 2
DILUPBiCGStab:  Solving for Uz, Initial residual = 0.009750173, Final residual = 2.69807e-05, No Iterations 1
GAMG:  Solving for p, Initial residual = 0.0001073916, Final residual = 2.194469e-06, No Iterations 100
GAMG:  Solving for p, Initial residual = 2.168859e-05, Final residual = 1.240737e-06, No Iterations 100
GAMG:  Solving for p, Initial residual = 6.403751e-06, Final residual = 7.526802e-07, No Iterations 100
time step continuity errors : sum local = 5.336583e-07, global = 6.954644e-10, cumulative = 1.172789e-07
DILUPBiCGStab:  Solving for omega, Initial residual = 2.808935e-05, Final residual = 6.123044e-07, No Iterations 1
DILUPBiCGStab:  Solving for k, Initial residual = 0.005194053, Final residual = 9.481772e-05, No Iterations 1
ExecutionTime = 26.51 s  ClockTime = 28 s

forceCoeffs forceCoefficientMonitorOnLowerUpperTipInDefault write:
    Coefficient	Total	Pressure	Viscous	Internal
    Cd:	0.007500052	0.004842352	0.0026577	0
    Cd(f):	0.003750026	0.002421176	0.00132885	0
    Cd(r):	0.003750026	0.002421176	0.00132885	0
    Cl:	-1.643257e-05	7.828493e-08	-1.651086e-05	0
    Cl(f):	-2.496313e-07	8.041658e-06	-8.291289e-06	0
    Cl(r):	-1.618294e-05	-7.963373e-06	-8.219569e-06	0
    CmPitch:	7.966655e-06	8.002515e-06	-3.586009e-08	0
    CmRoll:	-2.213467e-23	3.613892e-24	-2.574856e-23	0
    CmYaw:	1.861921e-20	1.861536e-20	3.849578e-24	0
    Cs:	1.529219e-20	1.104998e-23	1.528114e-20	0
    Cs(f):	2.626531e-20	1.862088e-20	7.644421e-21	0
    Cs(r):	-1.097311e-20	-1.860983e-20	7.636721e-21	0

    writing force and moment coefficient files.

Time = 45

DILUPBiCGStab:  Solving for Ux, Initial residual = 0.0003041289, Final residual = 4.909911e-07, No Iterations 2
DILUPBiCGStab:  Solving for Uz, Initial residual = 0.009715829, Final residual = 2.626908e-05, No Iterations 1
GAMG:  Solving for p, Initial residual = 0.0001017289, Final residual = 2.221841e-06, No Iterations 100
GAMG:  Solving for p, Initial residual = 2.107763e-05, Final residual = 1.258767e-06, No Iterations 100
GAMG:  Solving for p, Initial residual = 6.227707e-06, Final residual = 7.57469e-07, No Iterations 100
time step continuity errors : sum local = 5.382856e-07, global = 9.532549e-10, cumulative = 1.182322e-07
DILUPBiCGStab:  Solving for omega, Initial residual = 2.763474e-05, Final residual = 6.004791e-07, No Iterations 1
DILUPBiCGStab:  Solving for k, Initial residual = 0.00508749, Final residual = 9.050844e-05, No Iterations 1
ExecutionTime = 27.11 s  ClockTime = 29 s

forceCoeffs forceCoefficientMonitorOnLowerUpperTipInDefault write:
    Coefficient	Total	Pressure	Viscous	Internal
    Cd:	0.007500686	0.00485167	0.002649015	0
    Cd(f):	0.003750343	0.002425835	0.001324508	0
    Cd(r):	0.003750343	0.002425835	0.001324508	0
    Cl:	-1.326179e-05	7.408562e-08	-1.333588e-05	0
    Cl(f):	-4.507082e-07	6.253922e-06	-6.70463e-06	0
    Cl(r):	-1.281108e-05	-6.179836e-06	-6.631246e-06	0
    CmPitch:	6.180187e-06	6.216879e-06	-3.66921e-08	0
    CmRoll:	-2.129541e-23	3.576125e-24	-2.487153e-23	0
    CmYaw:	1.851598e-20	1.85124e-20	3.581359e-24	0
    Cs:	1.520737e-20	1.069108e-23	1.519668e-20	0
    Cs(f):	2.611966e-20	1.851774e-20	7.601921e-21	0
    Cs(r):	-1.091229e-20	-1.850705e-20	7.594758e-21	0

    writing force and moment coefficient files.

Time = 46

DILUPBiCGStab:  Solving for Ux, Initial residual = 0.0003008117, Final residual = 4.865382e-07, No Iterations 2
DILUPBiCGStab:  Solving for Uz, Initial residual = 0.009684897, Final residual = 2.564263e-05, No Iterations 1
GAMG:  Solving for p, Initial residual = 9.71657e-05, Final residual = 2.249939e-06, No Iterations 100
GAMG:  Solving for p, Initial residual = 2.059151e-05, Final residual = 1.254606e-06, No Iterations 100
GAMG:  Solving for p, Initial residual = 6.049379e-06, Final residual = 7.476057e-07, No Iterations 100
time step continuity errors : sum local = 5.325041e-07, global = 1.195086e-09, cumulative = 1.194273e-07
[...]
GAMG:  Solving for p, Initial residual = 7.334016e-08, Final residual = 7.334016e-08, No Iterations 0
time step continuity errors : sum local = 5.301796e-08, global = 4.976408e-09, cumulative = -7.213071e-07
DILUPBiCGStab:  Solving for omega, Initial residual = 9.406513e-07, Final residual = 9.406513e-07, No Iterations 0
DILUPBiCGStab:  Solving for k, Initial residual = 1.226416e-06, Final residual = 3.62268e-08, No Iterations 1
ExecutionTime = 300.04 s  ClockTime = 337 s

forceCoeffs forceCoefficientMonitorOnLowerUpperTipInDefault write:
    Coefficient	Total	Pressure	Viscous	Internal
    Cd:	0.008571799	0.006569061	0.002002738	0
    Cd(f):	0.0042859	0.003284531	0.001001369	0
    Cd(r):	0.0042859	0.003284531	0.001001369	0
    Cl:	3.765761e-06	-4.547108e-09	3.770308e-06	0
    Cl(f):	1.442787e-07	-1.747368e-06	1.891647e-06	0
    Cl(r):	3.621482e-06	1.742821e-06	1.878661e-06	0
    CmPitch:	-1.738602e-06	-1.745094e-06	6.492694e-09	0
    CmRoll:	-1.956203e-23	3.025502e-24	-2.258753e-23	0
    CmYaw:	1.740503e-20	1.739677e-20	8.263195e-24	0
    Cs:	1.42991e-20	1.87343e-23	1.428037e-20	0
    Cs(f):	2.455458e-20	1.740613e-20	7.148447e-21	0
    Cs(r):	-1.025548e-20	-1.73874e-20	7.131921e-21	0

    writing force and moment coefficient files.

Time = 1269

DILUPBiCGStab:  Solving for Ux, Initial residual = 5.38983e-07, Final residual = 7.693993e-08, No Iterations 1
DILUPBiCGStab:  Solving for Uz, Initial residual = 1.133007e-06, Final residual = 1.217993e-08, No Iterations 1
GAMG:  Solving for p, Initial residual = 9.931988e-08, Final residual = 9.931988e-08, No Iterations 0
GAMG:  Solving for p, Initial residual = 9.931988e-08, Final residual = 9.931988e-08, No Iterations 0
GAMG:  Solving for p, Initial residual = 9.931988e-08, Final residual = 9.931988e-08, No Iterations 0
time step continuity errors : sum local = 7.179881e-08, global = 9.820235e-09, cumulative = -7.114869e-07
DILUPBiCGStab:  Solving for omega, Initial residual = 9.407248e-07, Final residual = 9.407248e-07, No Iterations 0
DILUPBiCGStab:  Solving for k, Initial residual = 1.180336e-06, Final residual = 3.533337e-08, No Iterations 1
ExecutionTime = 300.12 s  ClockTime = 337 s

forceCoeffs forceCoefficientMonitorOnLowerUpperTipInDefault write:
    Coefficient	Total	Pressure	Viscous	Internal
    Cd:	0.008571804	0.006569066	0.002002738	0
    Cd(f):	0.004285902	0.003284533	0.001001369	0
    Cd(r):	0.004285902	0.003284533	0.001001369	0
    Cl:	3.765762e-06	-4.54562e-09	3.770308e-06	0
    Cl(f):	1.442771e-07	-1.747367e-06	1.891644e-06	0
    Cl(r):	3.621485e-06	1.742822e-06	1.878664e-06	0
    CmPitch:	-1.738604e-06	-1.745094e-06	6.490356e-09	0
    CmRoll:	-1.956209e-23	3.025502e-24	-2.25876e-23	0
    CmYaw:	1.740503e-20	1.739677e-20	8.262503e-24	0
    Cs:	1.42991e-20	1.873364e-23	1.428037e-20	0
    Cs(f):	2.455458e-20	1.740613e-20	7.148446e-21	0
    Cs(r):	-1.025548e-20	-1.73874e-20	7.131921e-21	0

    writing force and moment coefficient files.

Time = 1270

DILUPBiCGStab:  Solving for Ux, Initial residual = 5.264065e-07, Final residual = 7.535707e-08, No Iterations 1
DILUPBiCGStab:  Solving for Uz, Initial residual = 1.103217e-06, Final residual = 9.552636e-08, No Iterations 1
GAMG:  Solving for p, Initial residual = 1.177975e-07, Final residual = 7.570926e-08, No Iterations 2
GAMG:  Solving for p, Initial residual = 7.738284e-08, Final residual = 7.738284e-08, No Iterations 0
GAMG:  Solving for p, Initial residual = 7.738284e-08, Final residual = 7.738284e-08, No Iterations 0
time step continuity errors : sum local = 5.594044e-08, global = 5.651839e-09, cumulative = -7.05835e-07
DILUPBiCGStab:  Solving for omega, Initial residual = 9.407992e-07, Final residual = 9.407992e-07, No Iterations 0
DILUPBiCGStab:  Solving for k, Initial residual = 1.138122e-06, Final residual = 3.458032e-08, No Iterations 1
ExecutionTime = 300.19 s  ClockTime = 337 s

forceCoeffs forceCoefficientMonitorOnLowerUpperTipInDefault write:
    Coefficient	Total	Pressure	Viscous	Internal
    Cd:	0.008571808	0.00656907	0.002002738	0
    Cd(f):	0.004285904	0.003284535	0.001001369	0
    Cd(r):	0.004285904	0.003284535	0.001001369	0
    Cl:	3.786847e-06	-4.543626e-09	3.79139e-06	0
    Cl(f):	1.406532e-07	-1.76153e-06	1.902183e-06	0
    Cl(r):	3.646193e-06	1.756986e-06	1.889207e-06	0
    CmPitch:	-1.75277e-06	-1.759258e-06	6.48768e-09	0
    CmRoll:	-1.956223e-23	3.025508e-24	-2.258774e-23	0
    CmYaw:	1.740505e-20	1.739678e-20	8.263842e-24	0
    Cs:	1.429912e-20	1.873489e-23	1.428038e-20	0
    Cs(f):	2.45546e-20	1.740615e-20	7.148454e-21	0
    Cs(r):	-1.025549e-20	-1.738742e-20	7.131927e-21	0

    writing force and moment coefficient files.

Time = 1271

DILUPBiCGStab:  Solving for Ux, Initial residual = 5.148921e-07, Final residual = 7.385575e-08, No Iterations 1
DILUPBiCGStab:  Solving for Uz, Initial residual = 1.100038e-06, Final residual = 9.896393e-08, No Iterations 1
GAMG:  Solving for p, Initial residual = 1.047528e-07, Final residual = 7.088021e-08, No Iterations 2
GAMG:  Solving for p, Initial residual = 7.2495e-08, Final residual = 7.2495e-08, No Iterations 0
GAMG:  Solving for p, Initial residual = 7.2495e-08, Final residual = 7.2495e-08, No Iterations 0
time step continuity errors : sum local = 5.2407e-08, global = 4.351979e-09, cumulative = -7.014831e-07
DILUPBiCGStab:  Solving for omega, Initial residual = 9.408682e-07, Final residual = 9.408682e-07, No Iterations 0
DILUPBiCGStab:  Solving for k, Initial residual = 1.09946e-06, Final residual = 3.414385e-08, No Iterations 1
ExecutionTime = 300.27 s  ClockTime = 338 s

forceCoeffs forceCoefficientMonitorOnLowerUpperTipInDefault write:
    Coefficient	Total	Pressure	Viscous	Internal
    Cd:	0.008571811	0.006569075	0.002002736	0
    Cd(f):	0.004285905	0.003284538	0.001001368	0
    Cd(r):	0.004285905	0.003284538	0.001001368	0
    Cl:	3.804855e-06	-4.54156e-09	3.809396e-06	0
    Cl(f):	1.383275e-07	-1.772855e-06	1.911183e-06	0
    Cl(r):	3.666527e-06	1.768314e-06	1.898214e-06	0
    CmPitch:	-1.7641e-06	-1.770584e-06	6.484529e-09	0
    CmRoll:	-1.956229e-23	3.025515e-24	-2.258781e-23	0
    CmYaw:	1.740507e-20	1.73968e-20	8.264973e-24	0
    Cs:	1.429913e-20	1.8736e-23	1.42804e-20	0
    Cs(f):	2.455463e-20	1.740617e-20	7.148463e-21	0
    Cs(r):	-1.02555e-20	-1.738743e-20	7.131933e-21	0

    writing force and moment coefficient files.

Time = 1272

DILUPBiCGStab:  Solving for Ux, Initial residual = 5.039722e-07, Final residual = 7.240332e-08, No Iterations 1
DILUPBiCGStab:  Solving for Uz, Initial residual = 1.098473e-06, Final residual = 1.248763e-08, No Iterations 1
GAMG:  Solving for p, Initial residual = 9.966882e-08, Final residual = 9.966882e-08, No Iterations 0
GAMG:  Solving for p, Initial residual = 9.966882e-08, Final residual = 9.966882e-08, No Iterations 0
GAMG:  Solving for p, Initial residual = 9.966882e-08, Final residual = 9.966882e-08, No Iterations 0
time step continuity errors : sum local = 7.205108e-08, global = 9.770092e-09, cumulative = -6.91713e-07
DILUPBiCGStab:  Solving for omega, Initial residual = 9.409301e-07, Final residual = 9.409301e-07, No Iterations 0
DILUPBiCGStab:  Solving for k, Initial residual = 1.064185e-06, Final residual = 3.395294e-08, No Iterations 1
ExecutionTime = 300.34 s  ClockTime = 338 s

forceCoeffs forceCoefficientMonitorOnLowerUpperTipInDefault write:
    Coefficient	Total	Pressure	Viscous	Internal
    Cd:	0.008571815	0.00656908	0.002002736	0
    Cd(f):	0.004285908	0.00328454	0.001001368	0
    Cd(r):	0.004285908	0.00328454	0.001001368	0
    Cl:	3.804855e-06	-4.540837e-09	3.809396e-06	0
    Cl(f):	1.38326e-07	-1.772855e-06	1.911181e-06	0
    Cl(r):	3.666529e-06	1.768314e-06	1.898215e-06	0
    CmPitch:	-1.764102e-06	-1.770584e-06	6.482669e-09	0
    CmRoll:	-1.956231e-23	3.025515e-24	-2.258783e-23	0
    CmYaw:	1.740507e-20	1.73968e-20	8.263674e-24	0
    Cs:	1.429913e-20	1.873476e-23	1.42804e-20	0
    Cs(f):	2.455463e-20	1.740617e-20	7.148462e-21	0
    Cs(r):	-1.02555e-20	-1.738743e-20	7.131935e-21	0

    writing force and moment coefficient files.

Time = 1273

DILUPBiCGStab:  Solving for Ux, Initial residual = 4.927993e-07, Final residual = 7.089956e-08, No Iterations 1
DILUPBiCGStab:  Solving for Uz, Initial residual = 1.067513e-06, Final residual = 9.729601e-08, No Iterations 1
GAMG:  Solving for p, Initial residual = 1.158444e-07, Final residual = 7.741995e-08, No Iterations 2
GAMG:  Solving for p, Initial residual = 7.909207e-08, Final residual = 7.909207e-08, No Iterations 0
GAMG:  Solving for p, Initial residual = 7.909207e-08, Final residual = 7.909207e-08, No Iterations 0
time step continuity errors : sum local = 5.717603e-08, global = 4.851004e-09, cumulative = -6.86862e-07
DILUPBiCGStab:  Solving for omega, Initial residual = 9.409965e-07, Final residual = 9.409965e-07, No Iterations 0
DILUPBiCGStab:  Solving for k, Initial residual = 1.032286e-06, Final residual = 3.395001e-08, No Iterations 1
ExecutionTime = 300.45 s  ClockTime = 338 s

forceCoeffs forceCoefficientMonitorOnLowerUpperTipInDefault write:
    Coefficient	Total	Pressure	Viscous	Internal
    Cd:	0.008571815	0.006569085	0.00200273	0
    Cd(f):	0.004285907	0.003284542	0.001001365	0
    Cd(r):	0.004285907	0.003284542	0.001001365	0
    Cl:	3.817181e-06	-4.540529e-09	3.821722e-06	0
    Cl(f):	1.380093e-07	-1.779332e-06	1.917342e-06	0
    Cl(r):	3.679172e-06	1.774792e-06	1.90438e-06	0
    CmPitch:	-1.770581e-06	-1.777062e-06	6.480628e-09	0
    CmRoll:	-1.956237e-23	3.025525e-24	-2.258789e-23	0
    CmYaw:	1.74051e-20	1.739683e-20	8.265791e-24	0
    Cs:	1.429916e-20	1.873683e-23	1.428042e-20	0
    Cs(f):	2.455468e-20	1.74062e-20	7.148476e-21	0
    Cs(r):	-1.025552e-20	-1.738746e-20	7.131944e-21	0

    writing force and moment coefficient files.

Time = 1274

DILUPBiCGStab:  Solving for Ux, Initial residual = 4.833324e-07, Final residual = 6.957479e-08, No Iterations 1
DILUPBiCGStab:  Solving for Uz, Initial residual = 1.069661e-06, Final residual = 1.238145e-08, No Iterations 1
GAMG:  Solving for p, Initial residual = 1.063899e-07, Final residual = 7.542152e-08, No Iterations 2
GAMG:  Solving for p, Initial residual = 7.700024e-08, Final residual = 7.700024e-08, No Iterations 0
GAMG:  Solving for p, Initial residual = 7.700024e-08, Final residual = 7.700024e-08, No Iterations 0
time step continuity errors : sum local = 5.566381e-08, global = 4.091651e-09, cumulative = -6.827703e-07
DILUPBiCGStab:  Solving for omega, Initial residual = 9.410583e-07, Final residual = 9.410583e-07, No Iterations 0
DILUPBiCGStab:  Solving for k, Initial residual = 1.003309e-06, Final residual = 3.406697e-08, No Iterations 1
ExecutionTime = 300.54 s  ClockTime = 338 s

forceCoeffs forceCoefficientMonitorOnLowerUpperTipInDefault write:
    Coefficient	Total	Pressure	Viscous	Internal
    Cd:	0.008571813	0.006569089	0.002002724	0
    Cd(f):	0.004285907	0.003284545	0.001001362	0
    Cd(r):	0.004285907	0.003284545	0.001001362	0
    Cl:	3.824516e-06	-4.540151e-09	3.829056e-06	0
    Cl(f):	1.388739e-07	-1.782133e-06	1.921007e-06	0
    Cl(r):	3.685642e-06	1.777593e-06	1.908049e-06	0
    CmPitch:	-1.773384e-06	-1.779863e-06	6.479005e-09	0
    CmRoll:	-1.956237e-23	3.025534e-24	-2.25879e-23	0
    CmYaw:	1.740513e-20	1.739686e-20	8.266973e-24	0
    Cs:	1.429918e-20	1.873805e-23	1.428044e-20	0
    Cs(f):	2.455472e-20	1.740623e-20	7.148489e-21	0
    Cs(r):	-1.025554e-20	-1.738749e-20	7.131956e-21	0

    writing force and moment coefficient files.

Time = 1275

DILUPBiCGStab:  Solving for Ux, Initial residual = 4.744355e-07, Final residual = 6.831009e-08, No Iterations 1
DILUPBiCGStab:  Solving for Uz, Initial residual = 1.061869e-06, Final residual = 1.243993e-08, No Iterations 1
GAMG:  Solving for p, Initial residual = 1.009657e-07, Final residual = 7.403356e-08, No Iterations 2
GAMG:  Solving for p, Initial residual = 7.566007e-08, Final residual = 7.566007e-08, No Iterations 0
GAMG:  Solving for p, Initial residual = 7.566007e-08, Final residual = 7.566007e-08, No Iterations 0
time step continuity errors : sum local = 5.469496e-08, global = 3.433591e-09, cumulative = -6.793367e-07
DILUPBiCGStab:  Solving for omega, Initial residual = 9.411178e-07, Final residual = 9.411178e-07, No Iterations 0
DILUPBiCGStab:  Solving for k, Initial residual = 9.770689e-07, Final residual = 9.770689e-07, No Iterations 0
ExecutionTime = 300.62 s  ClockTime = 338 s

forceCoeffs forceCoefficientMonitorOnLowerUpperTipInDefault write:
    Coefficient	Total	Pressure	Viscous	Internal
    Cd:	0.008571811	0.006569094	0.002002717	0
    Cd(f):	0.004285906	0.003284547	0.001001359	0
    Cd(r):	0.004285906	0.003284547	0.001001359	0
    Cl:	3.82357e-06	-4.538832e-09	3.828109e-06	0
    Cl(f):	1.412594e-07	-1.779272e-06	1.920531e-06	0
    Cl(r):	3.682311e-06	1.774733e-06	1.907578e-06	0
    CmPitch:	-1.770526e-06	-1.777002e-06	6.47637e-09	0
    CmRoll:	-1.956235e-23	3.025543e-24	-2.258789e-23	0
    CmYaw:	1.740516e-20	1.739689e-20	8.268046e-24	0
    Cs:	1.429921e-20	1.873917e-23	1.428047e-20	0
    Cs(f):	2.455476e-20	1.740626e-20	7.148503e-21	0
    Cs(r):	-1.025555e-20	-1.738752e-20	7.131967e-21	0

    writing force and moment coefficient files.

Time = 1276

DILUPBiCGStab:  Solving for Ux, Initial residual = 4.636369e-07, Final residual = 6.681611e-08, No Iterations 1
DILUPBiCGStab:  Solving for Uz, Initial residual = 1.049478e-06, Final residual = 9.903326e-08, No Iterations 1
GAMG:  Solving for p, Initial residual = 9.625021e-08, Final residual = 9.625021e-08, No Iterations 0
GAMG:  Solving for p, Initial residual = 9.625021e-08, Final residual = 9.625021e-08, No Iterations 0
GAMG:  Solving for p, Initial residual = 9.625021e-08, Final residual = 9.625021e-08, No Iterations 0
time step continuity errors : sum local = 6.957965e-08, global = 4.918726e-09, cumulative = -6.74418e-07
DILUPBiCGStab:  Solving for omega, Initial residual = 9.411601e-07, Final residual = 9.411601e-07, No Iterations 0
DILUPBiCGStab:  Solving for k, Initial residual = 9.769627e-07, Final residual = 9.769627e-07, No Iterations 0
ExecutionTime = 300.7 s  ClockTime = 338 s

forceCoeffs forceCoefficientMonitorOnLowerUpperTipInDefault write:
    Coefficient	Total	Pressure	Viscous	Internal
    Cd:	0.008571814	0.006569097	0.002002717	0
    Cd(f):	0.004285907	0.003284549	0.001001359	0
    Cd(r):	0.004285907	0.003284549	0.001001359	0
    Cl:	3.823571e-06	-4.538243e-09	3.828109e-06	0
    Cl(f):	1.412578e-07	-1.779271e-06	1.920529e-06	0
    Cl(r):	3.682313e-06	1.774733e-06	1.90758e-06	0
    CmPitch:	-1.770528e-06	-1.777002e-06	6.474541e-09	0
    CmRoll:	-1.95624e-23	3.025543e-24	-2.258795e-23	0
    CmYaw:	1.740516e-20	1.739689e-20	8.266254e-24	0
    Cs:	1.429921e-20	1.873744e-23	1.428047e-20	0
    Cs(f):	2.455476e-20	1.740626e-20	7.148501e-21	0
    Cs(r):	-1.025555e-20	-1.738752e-20	7.131968e-21	0

    writing force and moment coefficient files.

Time = 1277

DILUPBiCGStab:  Solving for Ux, Initial residual = 4.519927e-07, Final residual = 6.524889e-08, No Iterations 1
DILUPBiCGStab:  Solving for Uz, Initial residual = 1.02194e-06, Final residual = 9.743687e-08, No Iterations 1
GAMG:  Solving for p, Initial residual = 1.112698e-07, Final residual = 7.685431e-08, No Iterations 2
GAMG:  Solving for p, Initial residual = 7.919535e-08, Final residual = 7.919535e-08, No Iterations 0
GAMG:  Solving for p, Initial residual = 7.919535e-08, Final residual = 7.919535e-08, No Iterations 0
time step continuity errors : sum local = 5.725057e-08, global = 3.284863e-09, cumulative = -6.711331e-07
DILUPBiCGStab:  Solving for omega, Initial residual = 9.411963e-07, Final residual = 9.411963e-07, No Iterations 0
DILUPBiCGStab:  Solving for k, Initial residual = 9.769303e-07, Final residual = 9.769303e-07, No Iterations 0
ExecutionTime = 300.78 s  ClockTime = 338 s

forceCoeffs forceCoefficientMonitorOnLowerUpperTipInDefault write:
    Coefficient	Total	Pressure	Viscous	Internal
    Cd:	0.00857181	0.0065691	0.002002711	0
    Cd(f):	0.004285905	0.00328455	0.001001355	0
    Cd(r):	0.004285905	0.00328455	0.001001355	0
    Cl:	3.806063e-06	-4.53912e-09	3.810602e-06	0
    Cl(f):	1.461862e-07	-1.765589e-06	1.911776e-06	0
    Cl(r):	3.659876e-06	1.76105e-06	1.898826e-06	0
    CmPitch:	-1.756845e-06	-1.76332e-06	6.474795e-09	0
    CmRoll:	-1.956239e-23	3.025552e-24	-2.258795e-23	0
    CmYaw:	1.740519e-20	1.739692e-20	8.268321e-24	0
    Cs:	1.429923e-20	1.873961e-23	1.428049e-20	0
    Cs(f):	2.455481e-20	1.740629e-20	7.148515e-21	0
    Cs(r):	-1.025557e-20	-1.738755e-20	7.131979e-21	0

    writing force and moment coefficient files.

Time = 1278

DILUPBiCGStab:  Solving for Ux, Initial residual = 4.419617e-07, Final residual = 6.386751e-08, No Iterations 1
DILUPBiCGStab:  Solving for Uz, Initial residual = 1.017269e-06, Final residual = 1.230662e-08, No Iterations 1
GAMG:  Solving for p, Initial residual = 9.898092e-08, Final residual = 9.898092e-08, No Iterations 0
GAMG:  Solving for p, Initial residual = 9.898092e-08, Final residual = 9.898092e-08, No Iterations 0
GAMG:  Solving for p, Initial residual = 9.898092e-08, Final residual = 9.898092e-08, No Iterations 0
time step continuity errors : sum local = 7.155364e-08, global = 7.310404e-09, cumulative = -6.638227e-07
DILUPBiCGStab:  Solving for omega, Initial residual = 9.412326e-07, Final residual = 9.412326e-07, No Iterations 0
DILUPBiCGStab:  Solving for k, Initial residual = 9.769355e-07, Final residual = 9.769355e-07, No Iterations 0
ExecutionTime = 300.85 s  ClockTime = 338 s

forceCoeffs forceCoefficientMonitorOnLowerUpperTipInDefault write:
    Coefficient	Total	Pressure	Viscous	Internal
    Cd:	0.008571813	0.006569102	0.002002711	0
    Cd(f):	0.004285906	0.003284551	0.001001355	0
    Cd(r):	0.004285906	0.003284551	0.001001355	0
    Cl:	3.806063e-06	-4.538471e-09	3.810602e-06	0
    Cl(f):	1.461854e-07	-1.765589e-06	1.911775e-06	0
    Cl(r):	3.659878e-06	1.761051e-06	1.898827e-06	0
    CmPitch:	-1.756846e-06	-1.76332e-06	6.473673e-09	0
    CmRoll:	-1.95625e-23	3.025552e-24	-2.258805e-23	0
    CmYaw:	1.740519e-20	1.739692e-20	8.266951e-24	0
    Cs:	1.429923e-20	1.873827e-23	1.428049e-20	0
    Cs(f):	2.45548e-20	1.740629e-20	7.148514e-21	0
    Cs(r):	-1.025557e-20	-1.738755e-20	7.13198e-21	0

    writing force and moment coefficient files.

Time = 1279

DILUPBiCGStab:  Solving for Ux, Initial residual = 4.314086e-07, Final residual = 6.246266e-08, No Iterations 1
DILUPBiCGStab:  Solving for Uz, Initial residual = 9.867137e-07, Final residual = 9.554104e-08, No Iterations 1
GAMG:  Solving for p, Initial residual = 1.111519e-07, Final residual = 8.288862e-08, No Iterations 2
GAMG:  Solving for p, Initial residual = 8.485706e-08, Final residual = 8.485706e-08, No Iterations 0
GAMG:  Solving for p, Initial residual = 8.485706e-08, Final residual = 8.485706e-08, No Iterations 0
time step continuity errors : sum local = 6.134339e-08, global = 4.376358e-09, cumulative = -6.594464e-07
DILUPBiCGStab:  Solving for omega, Initial residual = 9.412762e-07, Final residual = 9.412762e-07, No Iterations 0
DILUPBiCGStab:  Solving for k, Initial residual = 9.770006e-07, Final residual = 9.770006e-07, No Iterations 0
ExecutionTime = 300.94 s  ClockTime = 338 s


SIMPLE solution converged in 1279 iterations

forceCoeffs forceCoefficientMonitorOnLowerUpperTipInDefault write:
    Coefficient	Total	Pressure	Viscous	Internal
    Cd:	0.008571809	0.006569104	0.002002705	0
    Cd(f):	0.004285905	0.003284552	0.001001353	0
    Cd(r):	0.004285905	0.003284552	0.001001353	0
    Cl:	3.790879e-06	-4.54013e-09	3.79542e-06	0
    Cl(f):	1.496911e-07	-1.754493e-06	1.904184e-06	0
    Cl(r):	3.641188e-06	1.749953e-06	1.891235e-06	0
    CmPitch:	-1.745749e-06	-1.752223e-06	6.474403e-09	0
    CmRoll:	-1.956249e-23	3.025563e-24	-2.258805e-23	0
    CmYaw:	1.740523e-20	1.739696e-20	8.269051e-24	0
    Cs:	1.429926e-20	1.87406e-23	1.428052e-20	0
    Cs(f):	2.455486e-20	1.740633e-20	7.148531e-21	0
    Cs(r):	-1.025559e-20	-1.738759e-20	7.131992e-21	0

    writing force and moment coefficient files.

End

Finalising parallel run
