/*---------------------------------------------------------------------------*\
| =========                 |                                                 |
| \\      /  F ield         | OpenFOAM: The Open Source CFD Toolbox           |
|  \\    /   O peration     | Version:  2206                                  |
|   \\  /    A nd           | Website:  www.openfoam.com                      |
|    \\/     M anipulation  |                                                 |
\*---------------------------------------------------------------------------*/
Build  : _76d719d1e6-20220624 OPENFOAM=2206 version=v2206
Arch   : "LSB;label=32;scalar=64"
Exec   : simpleFoam -parallel
Date   : Sep 24 2023
Time   : 14:00:58
Host   : gagan-Z97P-D3
PID    : 19970
I/O    : uncollated
Case   : /media/gagan/Tannu/NACA_0012_OpenFOAM/AOA_Ten_degree
nProcs : 2
Hosts  :
(
    (gagan-Z97P-D3 2)
)
Pstream initialized with:
    floatTransfer      : 0
    nProcsSimpleSum    : 0
    commsType          : nonBlocking
    polling iterations : 0
trapFpe: Floating point exception trapping enabled (FOAM_SIGFPE).
fileModificationChecking : Monitoring run-time modified files using timeStampMaster (fileModificationSkew 5, maxFileModificationPolls 20)
allowSystemOperations : Allowing user-supplied system call operations

// * * * * * * * * * * * * * * * * * * * * * * * * * * * * * * * * * * * * * //
Create time

Overriding OptimisationSwitches according to controlDict
    fileHandler (unregistered)
    fileModificationSkew 0;

    maxMasterFileBufferSize 1e+09;

    maxThreadFileBufferSize 1e+09;

    mpiBufferSize (unregistered)
Create mesh for time = 0


SIMPLE: convergence criteria
    field p	 tolerance 1e-06
    field U	 tolerance 1e-06
    field k	 tolerance 1e-05
    field omega	 tolerance 1e-05

Reading field p

Reading field U

Reading/calculating face flux field phi

Selecting incompressible transport model Newtonian
Selecting turbulence model type RAS
Selecting RAS turbulence model kOmegaSST
Selecting patchDistMethod meshWave
kOmegaSSTCoeffs
{
    alphaK1         0.85;
    alphaOmega2     0.856;
    gamma2          0.4403;
    alphaK2         1;
    alphaOmega1     0.5;
    gamma1          0.5532;
    F3              false;
    c1              10;
    b1              1;
    a1              0.31;
    beta1           0.075;
    beta2           0.0828;
    betaStar        0.09;
    decayControl    false;
    kInf            0;
    omegaInf        0;
}

Creating MRF zone list from MRFProperties
Creating finite volume options from "system/fvOptions"

No finite volume options present

Starting time loop

forceCoeffs forceCoefficientMonitorOnUpperLowerTipInDefault:
    p: p
    U: U
    rho: rhoInf
    Freestream density (rhoInf) set to 1
    Not including porosity effects
    magUInf: 90
    lRef   : 1
    Aref   : 1
    rhoInf : 1
    Selecting all coefficients
    - Drag force: Cd
    - Drag force front: Cd(f)
    - Drag force rear: Cd(r)
    - Lift force: Cl
    - Lift force front: Cl(f)
    - Lift force rear: Cl(r)
    - Pitch moment: CmPitch
    - Roll moment: CmRoll
    - Yaw moment: CmYaw
    - Side force: Cs
    - Side force front: Cs(f)
    - Side force rear: Cs(r)


Time = 1

DILUPBiCGStab:  Solving for Ux, Initial residual = 1, Final residual = 0.002460222, No Iterations 2
DILUPBiCGStab:  Solving for Uz, Initial residual = 1, Final residual = 0.0007905498, No Iterations 2
GAMG:  Solving for p, Initial residual = 1, Final residual = 0.2003661, No Iterations 100
GAMG:  Solving for p, Initial residual = 0.002987819, Final residual = 0.0001192219, No Iterations 100
GAMG:  Solving for p, Initial residual = 0.001000332, Final residual = 7.231108e-05, No Iterations 100
time step continuity errors : sum local = 0.0003857472, global = 3.009613e-06, cumulative = 3.009613e-06
DILUPBiCGStab:  Solving for omega, Initial residual = 0.000841276, Final residual = 2.831822e-05, No Iterations 1
DILUPBiCGStab:  Solving for k, Initial residual = 1, Final residual = 0.06087337, No Iterations 1
ExecutionTime = 0.88 s  ClockTime = 1 s

forceCoeffs forceCoefficientMonitorOnUpperLowerTipInDefault write:
    Coefficient	Total	Pressure	Viscous	Internal
    Cd:	1.289443	0.01720108	1.272242	0
    Cd(f):	0.6447216	0.008600541	0.636121	0
    Cd(r):	0.6447216	0.008600541	0.636121	0
    Cl:	2.45582e-05	-1.000038e-09	2.45592e-05	0
    Cl(f):	-1.258589e-07	-1.240642e-05	1.228056e-05	0
    Cl(r):	2.468406e-05	1.240542e-05	1.227865e-05	0
    CmPitch:	-1.240496e-05	-1.240592e-05	9.557745e-10	0
    CmRoll:	3.300187e-21	1.992005e-22	3.100987e-21	0
    CmYaw:	-1.090014e-19	-1.187364e-19	9.734971e-21	0
    Cs:	-8.774784e-20	9.738299e-21	-9.748614e-20	0
    Cs(f):	-1.528753e-19	-1.138672e-19	-3.90081e-20	0
    Cs(r):	6.512751e-20	1.236055e-19	-5.847804e-20	0

    writing force and moment coefficient files.

Time = 2

DILUPBiCGStab:  Solving for Ux, Initial residual = 0.09043373, Final residual = 0.0002608752, No Iterations 2
DILUPBiCGStab:  Solving for Uz, Initial residual = 0.3483687, Final residual = 0.0005476367, No Iterations 2
GAMG:  Solving for p, Initial residual = 0.02066832, Final residual = 0.0002046744, No Iterations 100
GAMG:  Solving for p, Initial residual = 0.02414306, Final residual = 0.0006771953, No Iterations 100
GAMG:  Solving for p, Initial residual = 0.00497624, Final residual = 0.00020358, No Iterations 100
time step continuity errors : sum local = 0.0001826041, global = -1.21507e-06, cumulative = 1.794543e-06
DILUPBiCGStab:  Solving for omega, Initial residual = 0.0007184673, Final residual = 2.11118e-05, No Iterations 1
DILUPBiCGStab:  Solving for k, Initial residual = 0.3115611, Final residual = 0.0194097, No Iterations 1
ExecutionTime = 1.67 s  ClockTime = 2 s

forceCoeffs forceCoefficientMonitorOnUpperLowerTipInDefault write:
    Coefficient	Total	Pressure	Viscous	Internal
    Cd:	0.5682545	0.004136057	0.5641184	0
    Cd(f):	0.2841272	0.002068028	0.2820592	0
    Cd(r):	0.2841272	0.002068028	0.2820592	0
    Cl:	-0.0008923769	4.032089e-07	-0.0008927801	0
    Cl(f):	-0.0002912926	0.000155153	-0.0004464456	0
    Cl(r):	-0.0006010842	-0.0001547498	-0.0004463345	0
    CmPitch:	0.0001548958	0.0001549514	-5.554774e-08	0
    CmRoll:	-1.949175e-21	9.500635e-23	-2.044181e-21	0
    CmYaw:	-3.528929e-20	-3.243975e-20	-2.84954e-21	0
    Cs:	-2.950164e-20	-2.8662e-21	-2.663544e-20	0
    Cs(f):	-5.004011e-20	-3.387285e-20	-1.616726e-20	0
    Cs(r):	2.053847e-20	3.100665e-20	-1.046818e-20	0

    writing force and moment coefficient files.

Time = 3

DILUPBiCGStab:  Solving for Ux, Initial residual = 0.01531574, Final residual = 4.115293e-05, No Iterations 2
DILUPBiCGStab:  Solving for Uz, Initial residual = 0.1485757, Final residual = 0.0002459032, No Iterations 2
GAMG:  Solving for p, Initial residual = 0.02953749, Final residual = 0.0006477599, No Iterations 100
GAMG:  Solving for p, Initial residual = 0.007118159, Final residual = 0.0002934197, No Iterations 100
GAMG:  Solving for p, Initial residual = 0.002822643, Final residual = 0.0001740514, No Iterations 100
time step continuity errors : sum local = 0.000268295, global = -2.129365e-06, cumulative = -3.348219e-07
DILUPBiCGStab:  Solving for omega, Initial residual = 0.0006475074, Final residual = 1.471973e-05, No Iterations 1
DILUPBiCGStab:  Solving for k, Initial residual = 0.1638761, Final residual = 0.01081559, No Iterations 1
ExecutionTime = 2.55 s  ClockTime = 3 s

forceCoeffs forceCoefficientMonitorOnUpperLowerTipInDefault write:
    Coefficient	Total	Pressure	Viscous	Internal
    Cd:	-0.008654583	0.003200569	-0.01185515	0
    Cd(f):	-0.004327291	0.001600284	-0.005927576	0
    Cd(r):	-0.004327291	0.001600284	-0.005927576	0
    Cl:	-0.001038879	1.293845e-06	-0.001040173	0
    Cl(f):	-0.0003518797	0.0001682075	-0.0005200873	0
    Cl(r):	-0.0006869991	-0.0001669137	-0.0005200854	0
    CmPitch:	0.0001675597	0.0001675606	-9.155007e-10	0
    CmRoll:	-3.003904e-21	6.835709e-24	-3.010739e-21	0
    CmYaw:	4.400149e-20	4.426365e-20	-2.621649e-22	0
    Cs:	3.605195e-20	-2.759214e-22	3.632787e-20	0
    Cs(f):	6.202746e-20	4.412569e-20	1.790177e-20	0
    Cs(r):	-2.597551e-20	-4.440161e-20	1.84261e-20	0

    writing force and moment coefficient files.

Time = 4

DILUPBiCGStab:  Solving for Ux, Initial residual = 0.002947761, Final residual = 1.423745e-05, No Iterations 2
DILUPBiCGStab:  Solving for Uz, Initial residual = 0.04295915, Final residual = 0.0001560186, No Iterations 2
GAMG:  Solving for p, Initial residual = 0.01550808, Final residual = 0.0003030475, No Iterations 100
GAMG:  Solving for p, Initial residual = 0.002437603, Final residual = 0.0001245963, No Iterations 100
GAMG:  Solving for p, Initial residual = 0.000803318, Final residual = 7.647508e-05, No Iterations 100
time step continuity errors : sum local = 0.0001163223, global = -9.932215e-07, cumulative = -1.328043e-06
DILUPBiCGStab:  Solving for omega, Initial residual = 0.0003525103, Final residual = 6.678362e-06, No Iterations 1
DILUPBiCGStab:  Solving for k, Initial residual = 0.107398, Final residual = 0.006676251, No Iterations 1
ExecutionTime = 3.39 s  ClockTime = 4 s

forceCoeffs forceCoefficientMonitorOnUpperLowerTipInDefault write:
    Coefficient	Total	Pressure	Viscous	Internal
    Cd:	-0.1640673	0.00375145	-0.1678187	0
    Cd(f):	-0.08203364	0.001875725	-0.08390936	0
    Cd(r):	-0.08203364	0.001875725	-0.08390936	0
    Cl:	-0.0003668589	5.859377e-06	-0.0003727183	0
    Cl(f):	-0.0001742132	1.227574e-05	-0.0001864889	0
    Cl(r):	-0.0001926457	-6.416365e-06	-0.0001862294	0
    CmPitch:	9.216274e-06	9.346053e-06	-1.297796e-07	0
    CmRoll:	-1.077751e-21	-1.633362e-23	-1.061418e-21	0
    CmYaw:	5.421025e-20	5.426243e-20	-5.217823e-23	0
    Cs:	4.446437e-20	-7.550133e-23	4.453987e-20	0
    Cs(f):	7.644244e-20	5.422468e-20	2.221776e-20	0
    Cs(r):	-3.197806e-20	-5.430018e-20	2.232211e-20	0

    writing force and moment coefficient files.

Time = 5

DILUPBiCGStab:  Solving for Ux, Initial residual = 0.004942322, Final residual = 2.217232e-05, No Iterations 2
DILUPBiCGStab:  Solving for Uz, Initial residual = 0.0542459, Final residual = 0.0001755428, No Iterations 2
GAMG:  Solving for p, Initial residual = 0.01164616, Final residual = 0.0001153798, No Iterations 94
GAMG:  Solving for p, Initial residual = 0.002859153, Final residual = 9.71621e-05, No Iterations 100
GAMG:  Solving for p, Initial residual = 0.001412168, Final residual = 5.22305e-05, No Iterations 100
time step continuity errors : sum local = 4.286485e-05, global = 2.126961e-07, cumulative = -1.115347e-06
DILUPBiCGStab:  Solving for omega, Initial residual = 0.0002295552, Final residual = 4.344636e-06, No Iterations 1
DILUPBiCGStab:  Solving for k, Initial residual = 0.07546643, Final residual = 0.004359499, No Iterations 1
ExecutionTime = 4.18 s  ClockTime = 5 s

forceCoeffs forceCoefficientMonitorOnUpperLowerTipInDefault write:
    Coefficient	Total	Pressure	Viscous	Internal
    Cd:	-0.08544359	0.003588941	-0.08903253	0
    Cd(f):	-0.0427218	0.00179447	-0.04451627	0
    Cd(r):	-0.0427218	0.00179447	-0.04451627	0
    Cl:	0.0002570078	4.253196e-06	0.0002527546	0
    Cl(f):	3.475792e-05	-9.149183e-05	0.0001262497	0
    Cl(r):	0.0002222499	9.574503e-05	0.0001265049	0
    CmPitch:	-9.3746e-05	-9.361843e-05	-1.275748e-07	0
    CmRoll:	2.387267e-22	-6.519871e-24	2.452465e-22	0
    CmYaw:	3.534853e-20	3.525935e-20	8.918663e-23	0
    Cs:	2.90639e-20	1.18618e-22	2.894529e-20	0
    Cs(f):	4.988048e-20	3.531865e-20	1.456183e-20	0
    Cs(r):	-2.081658e-20	-3.520004e-20	1.438346e-20	0

    writing force and moment coefficient files.

Time = 6

DILUPBiCGStab:  Solving for Ux, Initial residual = 0.003519742, Final residual = 2.065902e-05, No Iterations 2
DILUPBiCGStab:  Solving for Uz, Initial residual = 0.03333547, Final residual = 0.0001758546, No Iterations 2
GAMG:  Solving for p, Initial residual = 0.01470101, Final residual = 0.000223324, No Iterations 100
GAMG:  Solving for p, Initial residual = 0.005383136, Final residual = 0.0002497471, No Iterations 100
GAMG:  Solving for p, Initial residual = 0.002158407, Final residual = 0.0001388975, No Iterations 100
time step continuity errors : sum local = 6.525594e-05, global = 5.587978e-07, cumulative = -5.565495e-07
DILUPBiCGStab:  Solving for omega, Initial residual = 0.0001475115, Final residual = 3.584837e-06, No Iterations 1
DILUPBiCGStab:  Solving for k, Initial residual = 0.05865165, Final residual = 0.003147375, No Iterations 1
ExecutionTime = 4.99 s  ClockTime = 5 s

forceCoeffs forceCoefficientMonitorOnUpperLowerTipInDefault write:
    Coefficient	Total	Pressure	Viscous	Internal
    Cd:	-0.00422637	0.003490881	-0.007717251	0
    Cd(f):	-0.002113185	0.00174544	-0.003858625	0
    Cd(r):	-0.002113185	0.00174544	-0.003858625	0
    Cl:	0.0004175379	-6.078445e-06	0.0004236164	0
    Cl(f):	0.0001197526	-9.222078e-05	0.0002119734	0
    Cl(r):	0.0002977853	8.614234e-05	0.000211643	0
    CmPitch:	-8.901634e-05	-8.918156e-05	1.652154e-07	0
    CmRoll:	4.157534e-22	5.059354e-24	4.10694e-22	0
    CmYaw:	2.075225e-20	2.064996e-20	1.022985e-22	0
    Cs:	1.722071e-20	2.678637e-22	1.695285e-20	0
    Cs(f):	2.936261e-20	2.078389e-20	8.578723e-21	0
    Cs(r):	-1.21419e-20	-2.051602e-20	8.374126e-21	0

    writing force and moment coefficient files.

Time = 7

DILUPBiCGStab:  Solving for Ux, Initial residual = 0.002202076, Final residual = 1.577415e-05, No Iterations 2
DILUPBiCGStab:  Solving for Uz, Initial residual = 0.02256532, Final residual = 6.658107e-05, No Iterations 2
GAMG:  Solving for p, Initial residual = 0.01460115, Final residual = 0.0002163717, No Iterations 100
GAMG:  Solving for p, Initial residual = 0.002498809, Final residual = 0.0001619825, No Iterations 100
GAMG:  Solving for p, Initial residual = 0.0009438688, Final residual = 9.780846e-05, No Iterations 100
time step continuity errors : sum local = 4.663048e-05, global = 4.324324e-07, cumulative = -1.241172e-07
DILUPBiCGStab:  Solving for omega, Initial residual = 0.0001221474, Final residual = 3.010238e-06, No Iterations 1
DILUPBiCGStab:  Solving for k, Initial residual = 0.04832481, Final residual = 0.002420344, No Iterations 1
ExecutionTime = 5.81 s  ClockTime = 6 s

forceCoeffs forceCoefficientMonitorOnUpperLowerTipInDefault write:
    Coefficient	Total	Pressure	Viscous	Internal
    Cd:	0.02348647	0.003316625	0.02016984	0
    Cd(f):	0.01174323	0.001658313	0.01008492	0
    Cd(r):	0.01174323	0.001658313	0.01008492	0
    Cl:	0.0002800673	-2.217269e-06	0.0002822846	0
    Cl(f):	9.362963e-05	-4.75613e-05	0.0001411909	0
    Cl(r):	0.0001864377	4.534403e-05	0.0001410936	0
    CmPitch:	-4.640401e-05	-4.645267e-05	4.865203e-08	0
    CmRoll:	1.426905e-22	8.21823e-24	1.344723e-22	0
    CmYaw:	1.693125e-20	1.691154e-20	1.970662e-23	0
    Cs:	1.366642e-20	-2.129705e-22	1.387939e-20	0
    Cs(f):	2.376446e-20	1.680506e-20	6.959404e-21	0
    Cs(r):	-1.009804e-20	-1.701803e-20	6.919991e-21	0

    writing force and moment coefficient files.

Time = 8

DILUPBiCGStab:  Solving for Ux, Initial residual = 0.002056379, Final residual = 1.18284e-05, No Iterations 2
DILUPBiCGStab:  Solving for Uz, Initial residual = 0.02241761, Final residual = 0.0001417538, No Iterations 2
GAMG:  Solving for p, Initial residual = 0.01125755, Final residual = 0.0001118087, No Iterations 88
GAMG:  Solving for p, Initial residual = 0.001226182, Final residual = 5.935473e-05, No Iterations 100
GAMG:  Solving for p, Initial residual = 0.0004824856, Final residual = 3.737404e-05, No Iterations 100
time step continuity errors : sum local = 2.180518e-05, global = 1.522916e-07, cumulative = 2.817447e-08
DILUPBiCGStab:  Solving for omega, Initial residual = 0.0001120672, Final residual = 2.678418e-06, No Iterations 1
DILUPBiCGStab:  Solving for k, Initial residual = 0.04099204, Final residual = 0.001929571, No Iterations 1
ExecutionTime = 6.6 s  ClockTime = 7 s

forceCoeffs forceCoefficientMonitorOnUpperLowerTipInDefault write:
    Coefficient	Total	Pressure	Viscous	Internal
    Cd:	0.01964326	0.003185108	0.01645815	0
    Cd(f):	0.009821629	0.001592554	0.008229075	0
    Cd(r):	0.009821629	0.001592554	0.008229075	0
    Cl:	6.437668e-05	1.616999e-06	6.275968e-05	0
    Cl(f):	3.02041e-05	-1.159683e-06	3.136379e-05	0
    Cl(r):	3.417257e-05	2.776682e-06	3.139589e-05	0
    CmPitch:	-1.984234e-06	-1.968182e-06	-1.605204e-08	0
    CmRoll:	-1.295781e-22	6.988409e-24	-1.365665e-22	0
    CmYaw:	1.836449e-20	1.840106e-20	-3.656647e-23	0
    Cs:	1.513971e-20	4.081798e-23	1.509889e-20	0
    Cs(f):	2.593434e-20	1.842147e-20	7.512878e-21	0
    Cs(r):	-1.079464e-20	-1.838065e-20	7.586011e-21	0

    writing force and moment coefficient files.

Time = 9

DILUPBiCGStab:  Solving for Ux, Initial residual = 0.001678411, Final residual = 1.076835e-05, No Iterations 2
DILUPBiCGStab:  Solving for Uz, Initial residual = 0.01956476, Final residual = 6.574357e-05, No Iterations 2
GAMG:  Solving for p, Initial residual = 0.007850726, Final residual = 7.608358e-05, No Iterations 38
GAMG:  Solving for p, Initial residual = 0.0008746473, Final residual = 1.494658e-05, No Iterations 100
GAMG:  Solving for p, Initial residual = 0.0003331444, Final residual = 8.91596e-06, No Iterations 100
time step continuity errors : sum local = 5.732457e-06, global = 4.297649e-09, cumulative = 3.247212e-08
DILUPBiCGStab:  Solving for omega, Initial residual = 0.000107189, Final residual = 2.356921e-06, No Iterations 1
DILUPBiCGStab:  Solving for k, Initial residual = 0.03538842, Final residual = 0.001579984, No Iterations 1
ExecutionTime = 7.26 s  ClockTime = 8 s

forceCoeffs forceCoefficientMonitorOnUpperLowerTipInDefault write:
    Coefficient	Total	Pressure	Viscous	Internal
    Cd:	0.01090755	0.003142934	0.007764621	0
    Cd(f):	0.005453777	0.001571467	0.00388231	0
    Cd(r):	0.005453777	0.001571467	0.00388231	0
    Cl:	3.96886e-05	1.603528e-06	3.808507e-05	0
    Cl(f):	1.540452e-05	-3.623331e-06	1.902785e-05	0
    Cl(r):	2.428408e-05	5.226859e-06	1.905722e-05	0
    CmPitch:	-4.439777e-06	-4.425095e-06	-1.468225e-08	0
    CmRoll:	-1.760116e-22	5.387965e-24	-1.813996e-22	0
    CmYaw:	2.009822e-20	2.014274e-20	-4.451742e-23	0
    Cs:	1.649774e-20	-2.81793e-23	1.652592e-20	0
    Cs(f):	2.83471e-20	2.012865e-20	8.218444e-21	0
    Cs(r):	-1.184935e-20	-2.015683e-20	8.307479e-21	0

    writing force and moment coefficient files.

Time = 10

DILUPBiCGStab:  Solving for Ux, Initial residual = 0.001420928, Final residual = 1.123903e-05, No Iterations 2
DILUPBiCGStab:  Solving for Uz, Initial residual = 0.01739341, Final residual = 4.558339e-05, No Iterations 2
GAMG:  Solving for p, Initial residual = 0.005547611, Final residual = 5.446762e-05, No Iterations 37
GAMG:  Solving for p, Initial residual = 0.0006485798, Final residual = 1.809035e-05, No Iterations 100
GAMG:  Solving for p, Initial residual = 0.000235733, Final residual = 1.191972e-05, No Iterations 100
time step continuity errors : sum local = 7.703387e-06, global = 8.169804e-09, cumulative = 4.064192e-08
DILUPBiCGStab:  Solving for omega, Initial residual = 0.0001021703, Final residual = 2.132745e-06, No Iterations 1
DILUPBiCGStab:  Solving for k, Initial residual = 0.03090885, Final residual = 0.001321008, No Iterations 1
ExecutionTime = 7.92 s  ClockTime = 8 s

forceCoeffs forceCoefficientMonitorOnUpperLowerTipInDefault write:
    Coefficient	Total	Pressure	Viscous	Internal
    Cd:	0.006679047	0.003184524	0.003494523	0
    Cd(f):	0.003339523	0.001592262	0.001747261	0
    Cd(r):	0.003339523	0.001592262	0.001747261	0
    Cl:	6.219158e-05	1.191204e-06	6.100037e-05	0
    Cl(f):	1.682082e-05	-1.368013e-05	3.050095e-05	0
    Cl(r):	4.537076e-05	1.487134e-05	3.049942e-05	0
    CmPitch:	-1.427497e-05	-1.427573e-05	7.627148e-10	0
    CmRoll:	-1.254243e-22	4.756779e-24	-1.30181e-22	0
    CmYaw:	2.074635e-20	2.077892e-20	-3.257233e-23	0
    Cs:	1.703963e-20	-6.637903e-24	1.704627e-20	0
    Cs(f):	2.926617e-20	2.077561e-20	8.49056e-21	0
    Cs(r):	-1.222654e-20	-2.078224e-20	8.555705e-21	0

    writing force and moment coefficient files.

Time = 11

DILUPBiCGStab:  Solving for Ux, Initial residual = 0.001308731, Final residual = 1.096284e-05, No Iterations 2
DILUPBiCGStab:  Solving for Uz, Initial residual = 0.01634034, Final residual = 3.915505e-05, No Iterations 2
GAMG:  Solving for p, Initial residual = 0.004191344, Final residual = 4.176923e-05, No Iterations 78
GAMG:  Solving for p, Initial residual = 0.0005404825, Final residual = 2.081742e-05, No Iterations 100
GAMG:  Solving for p, Initial residual = 0.0001868555, Final residual = 1.39473e-05, No Iterations 100
time step continuity errors : sum local = 8.852578e-06, global = 3.315477e-08, cumulative = 7.37967e-08
DILUPBiCGStab:  Solving for omega, Initial residual = 9.476416e-05, Final residual = 1.957829e-06, No Iterations 1
DILUPBiCGStab:  Solving for k, Initial residual = 0.02721168, Final residual = 0.001123278, No Iterations 1
ExecutionTime = 8.68 s  ClockTime = 9 s

forceCoeffs forceCoefficientMonitorOnUpperLowerTipInDefault write:
    Coefficient	Total	Pressure	Viscous	Internal
    Cd:	0.00612829	0.003249832	0.002878458	0
    Cd(f):	0.003064145	0.001624916	0.001439229	0
    Cd(r):	0.003064145	0.001624916	0.001439229	0
    Cl:	7.516866e-05	7.486439e-07	7.442002e-05	0
    Cl(f):	2.026042e-05	-1.696602e-05	3.722644e-05	0
    Cl(r):	5.490824e-05	1.771466e-05	3.719358e-05	0
    CmPitch:	-1.732391e-05	-1.734034e-05	1.643406e-08	0
    CmRoll:	-7.289148e-23	4.770477e-24	-7.766195e-23	0
    CmYaw:	2.074358e-20	2.076679e-20	-2.321385e-23	0
    Cs:	1.704113e-20	5.833688e-24	1.70353e-20	0
    Cs(f):	2.926414e-20	2.076971e-20	8.494436e-21	0
    Cs(r):	-1.222301e-20	-2.076387e-20	8.540864e-21	0

    writing force and moment coefficient files.

Time = 12

DILUPBiCGStab:  Solving for Ux, Initial residual = 0.001215121, Final residual = 1.004097e-05, No Iterations 2
DILUPBiCGStab:  Solving for Uz, Initial residual = 0.0155117, Final residual = 3.339389e-05, No Iterations 2
GAMG:  Solving for p, Initial residual = 0.003517818, Final residual = 3.516815e-05, No Iterations 87
GAMG:  Solving for p, Initial residual = 0.0004669907, Final residual = 1.934068e-05, No Iterations 100
GAMG:  Solving for p, Initial residual = 0.0001616888, Final residual = 1.294679e-05, No Iterations 100
time step continuity errors : sum local = 8.140834e-06, global = 4.542338e-08, cumulative = 1.192201e-07
DILUPBiCGStab:  Solving for omega, Initial residual = 8.821339e-05, Final residual = 1.79182e-06, No Iterations 1
DILUPBiCGStab:  Solving for k, Initial residual = 0.02418445, Final residual = 0.0009694822, No Iterations 1
ExecutionTime = 9.49 s  ClockTime = 10 s

forceCoeffs forceCoefficientMonitorOnUpperLowerTipInDefault write:
    Coefficient	Total	Pressure	Viscous	Internal
    Cd:	0.006697961	0.003323338	0.003374622	0
    Cd(f):	0.00334898	0.001661669	0.001687311	0
    Cd(r):	0.00334898	0.001661669	0.001687311	0
    Cl:	7.615355e-05	1.045863e-07	7.604896e-05	0
    Cl(f):	2.239347e-05	-1.56574e-05	3.805087e-05	0
    Cl(r):	5.376008e-05	1.576199e-05	3.799809e-05	0
    CmPitch:	-1.568331e-05	-1.57097e-05	2.638804e-08	0
    CmRoll:	-4.499289e-23	4.906127e-24	-4.989901e-23	0
    CmYaw:	2.067575e-20	2.06948e-20	-1.905198e-23	0
    Cs:	1.698633e-20	1.032335e-23	1.697601e-20	0
    Cs(f):	2.916891e-20	2.069996e-20	8.468951e-21	0
    Cs(r):	-1.218259e-20	-2.068964e-20	8.507055e-21	0

    writing force and moment coefficient files.

Time = 13

DILUPBiCGStab:  Solving for Ux, Initial residual = 0.001128474, Final residual = 8.999385e-06, No Iterations 2
DILUPBiCGStab:  Solving for Uz, Initial residual = 0.01488512, Final residual = 2.883731e-05, No Iterations 2
GAMG:  Solving for p, Initial residual = 0.002961198, Final residual = 2.939611e-05, No Iterations 80
GAMG:  Solving for p, Initial residual = 0.0003954736, Final residual = 1.605649e-05, No Iterations 100
GAMG:  Solving for p, Initial residual = 0.0001337916, Final residual = 1.093163e-05, No Iterations 100
time step continuity errors : sum local = 6.882966e-06, global = 4.433423e-08, cumulative = 1.635543e-07
DILUPBiCGStab:  Solving for omega, Initial residual = 8.244469e-05, Final residual = 1.646649e-06, No Iterations 1
DILUPBiCGStab:  Solving for k, Initial residual = 0.02170897, Final residual = 0.0008457731, No Iterations 1
ExecutionTime = 10.26 s  ClockTime = 11 s

forceCoeffs forceCoefficientMonitorOnUpperLowerTipInDefault write:
    Coefficient	Total	Pressure	Viscous	Internal
    Cd:	0.007191167	0.003411208	0.003779959	0
    Cd(f):	0.003595583	0.001705604	0.00188998	0
    Cd(r):	0.003595583	0.001705604	0.00188998	0
    Cl:	6.10493e-05	2.637636e-07	6.078554e-05	0
    Cl(f):	1.885016e-05	-1.157309e-05	3.042325e-05	0
    Cl(r):	4.219914e-05	1.183686e-05	3.036229e-05	0
    CmPitch:	-1.167449e-05	-1.170498e-05	3.048259e-08	0
    CmRoll:	-3.651488e-23	4.957516e-24	-4.14724e-23	0
    CmYaw:	2.07302e-20	2.07466e-20	-1.639813e-23	0
    Cs:	1.702958e-20	1.070949e-23	1.701887e-20	0
    Cs(f):	2.924499e-20	2.075196e-20	8.493035e-21	0
    Cs(r):	-1.221541e-20	-2.074125e-20	8.525831e-21	0

    writing force and moment coefficient files.

Time = 14

DILUPBiCGStab:  Solving for Ux, Initial residual = 0.001049147, Final residual = 8.015992e-06, No Iterations 2
DILUPBiCGStab:  Solving for Uz, Initial residual = 0.01432897, Final residual = 2.514618e-05, No Iterations 2
GAMG:  Solving for p, Initial residual = 0.00241444, Final residual = 2.407408e-05, No Iterations 88
GAMG:  Solving for p, Initial residual = 0.0003334074, Final residual = 1.365415e-05, No Iterations 100
GAMG:  Solving for p, Initial residual = 0.0001095911, Final residual = 9.649863e-06, No Iterations 100
time step continuity errors : sum local = 6.106758e-06, global = 3.719395e-08, cumulative = 2.007483e-07
DILUPBiCGStab:  Solving for omega, Initial residual = 7.693892e-05, Final residual = 1.516979e-06, No Iterations 1
DILUPBiCGStab:  Solving for k, Initial residual = 0.01965066, Final residual = 0.0007437006, No Iterations 1
ExecutionTime = 11.06 s  ClockTime = 11 s

forceCoeffs forceCoefficientMonitorOnUpperLowerTipInDefault write:
    Coefficient	Total	Pressure	Viscous	Internal
    Cd:	0.007420197	0.003506032	0.003914165	0
    Cd(f):	0.003710099	0.001753016	0.001957083	0
    Cd(r):	0.003710099	0.001753016	0.001957083	0
    Cl:	5.603901e-05	2.293714e-07	5.580963e-05	0
    Cl(f):	1.773977e-05	-1.019533e-05	2.79351e-05	0
    Cl(r):	3.829924e-05	1.042471e-05	2.787453e-05	0
    CmPitch:	-1.027973e-05	-1.031002e-05	3.028641e-08	0
    CmRoll:	-3.5147e-23	4.934405e-24	-4.00814e-23	0
    CmYaw:	2.084757e-20	2.086157e-20	-1.400241e-23	0
    Cs:	1.712682e-20	1.281433e-23	1.7114e-20	0
    Cs(f):	2.941098e-20	2.086798e-20	8.542999e-21	0
    Cs(r):	-1.228416e-20	-2.085516e-20	8.571004e-21	0

    writing force and moment coefficient files.

Time = 15

DILUPBiCGStab:  Solving for Ux, Initial residual = 0.0009764966, Final residual = 7.100204e-06, No Iterations 2
DILUPBiCGStab:  Solving for Uz, Initial residual = 0.01382319, Final residual = 2.166118e-05, No Iterations 2
GAMG:  Solving for p, Initial residual = 0.001957562, Final residual = 2.089148e-05, No Iterations 100
GAMG:  Solving for p, Initial residual = 0.0002788649, Final residual = 1.231072e-05, No Iterations 100
GAMG:  Solving for p, Initial residual = 9.0309e-05, Final residual = 8.828461e-06, No Iterations 100
time step continuity errors : sum local = 5.615139e-06, global = 3.211812e-08, cumulative = 2.328664e-07
DILUPBiCGStab:  Solving for omega, Initial residual = 7.193754e-05, Final residual = 1.398415e-06, No Iterations 1
DILUPBiCGStab:  Solving for k, Initial residual = 0.01791213, Final residual = 0.0006584778, No Iterations 1
ExecutionTime = 11.91 s  ClockTime = 12 s

forceCoeffs forceCoefficientMonitorOnUpperLowerTipInDefault write:
    Coefficient	Total	Pressure	Viscous	Internal
    Cd:	0.007492049	0.003602942	0.003889107	0
    Cd(f):	0.003746025	0.001801471	0.001944553	0
    Cd(r):	0.003746025	0.001801471	0.001944553	0
    Cl:	5.517845e-05	1.873421e-07	5.499111e-05	0
    Cl(f):	1.740735e-05	-1.011862e-05	2.752598e-05	0
    Cl(r):	3.77711e-05	1.030597e-05	2.746513e-05	0
    CmPitch:	-1.018187e-05	-1.02123e-05	3.042138e-08	0
    CmRoll:	-3.461179e-23	4.897241e-24	-3.950903e-23	0
    CmYaw:	2.094242e-20	2.095416e-20	-1.173983e-23	0
    Cs:	1.720517e-20	1.416449e-23	1.719101e-20	0
    Cs(f):	2.954501e-20	2.096124e-20	8.583765e-21	0
    Cs(r):	-1.233983e-20	-2.094708e-20	8.607245e-21	0

    writing force and moment coefficient files.

Time = 16

DILUPBiCGStab:  Solving for Ux, Initial residual = 0.0009108967, Final residual = 6.231289e-06, No Iterations 2
DILUPBiCGStab:  Solving for Uz, Initial residual = 0.01341071, Final residual = 0.0001274709, No Iterations 1
GAMG:  Solving for p, Initial residual = 0.001617835, Final residual = 1.853028e-05, No Iterations 100
GAMG:  Solving for p, Initial residual = 0.0002368757, Final residual = 1.093394e-05, No Iterations 100
GAMG:  Solving for p, Initial residual = 7.662663e-05, Final residual = 7.907294e-06, No Iterations 100
time step continuity errors : sum local = 5.054018e-06, global = 2.694837e-08, cumulative = 2.598147e-07
DILUPBiCGStab:  Solving for omega, Initial residual = 6.805723e-05, Final residual = 1.29111e-06, No Iterations 1
DILUPBiCGStab:  Solving for k, Initial residual = 0.01643836, Final residual = 0.0005872378, No Iterations 1
ExecutionTime = 12.78 s  ClockTime = 13 s

forceCoeffs forceCoefficientMonitorOnUpperLowerTipInDefault write:
    Coefficient	Total	Pressure	Viscous	Internal
    Cd:	0.007503687	0.00370105	0.003802637	0
    Cd(f):	0.003751843	0.001850525	0.001901319	0
    Cd(r):	0.003751843	0.001850525	0.001901319	0
    Cl:	5.030073e-05	2.387291e-07	5.0062e-05	0
    Cl(f):	1.551238e-05	-9.551035e-06	2.506341e-05	0
    Cl(r):	3.478835e-05	9.789765e-06	2.499859e-05	0
    CmPitch:	-9.637987e-06	-9.6704e-06	3.241283e-08	0
    CmRoll:	-3.370927e-23	4.87541e-24	-3.858468e-23	0
    CmYaw:	2.098555e-20	2.099547e-20	-9.914686e-24	0
    Cs:	1.724042e-20	1.44483e-23	1.722597e-20	0
    Cs(f):	2.960576e-20	2.100269e-20	8.60307e-21	0
    Cs(r):	-1.236534e-20	-2.098824e-20	8.6229e-21	0

    writing force and moment coefficient files.

Time = 17

DILUPBiCGStab:  Solving for Ux, Initial residual = 0.0008537636, Final residual = 5.398581e-06, No Iterations 2
DILUPBiCGStab:  Solving for Uz, Initial residual = 0.01307435, Final residual = 0.0001124525, No Iterations 1
GAMG:  Solving for p, Initial residual = 0.001366534, Final residual = 1.795814e-05, No Iterations 100
GAMG:  Solving for p, Initial residual = 0.000210238, Final residual = 1.063018e-05, No Iterations 100
GAMG:  Solving for p, Initial residual = 6.71359e-05, Final residual = 7.649422e-06, No Iterations 100
time step continuity errors : sum local = 4.912996e-06, global = 2.701785e-08, cumulative = 2.868326e-07
DILUPBiCGStab:  Solving for omega, Initial residual = 6.494616e-05, Final residual = 1.195846e-06, No Iterations 1
DILUPBiCGStab:  Solving for k, Initial residual = 0.01517379, Final residual = 0.0005270245, No Iterations 1
ExecutionTime = 13.63 s  ClockTime = 14 s

forceCoeffs forceCoefficientMonitorOnUpperLowerTipInDefault write:
    Coefficient	Total	Pressure	Viscous	Internal
    Cd:	0.007520241	0.003797847	0.003722394	0
    Cd(f):	0.003760121	0.001898924	0.001861197	0
    Cd(r):	0.003760121	0.001898924	0.001861197	0
    Cl:	4.228868e-05	2.007743e-07	4.20879e-05	0
    Cl(f):	1.313133e-05	-7.950052e-06	2.108138e-05	0
    Cl(r):	2.915735e-05	8.150826e-06	2.100652e-05	0
    CmPitch:	-8.013007e-06	-8.050439e-06	3.743182e-08	0
    CmRoll:	-3.275602e-23	4.869596e-24	-3.762562e-23	0
    CmYaw:	2.098813e-20	2.099659e-20	-8.457939e-24	0
    Cs:	1.724193e-20	1.399539e-23	1.722794e-20	0
    Cs(f):	2.96091e-20	2.100359e-20	8.605511e-21	0
    Cs(r):	-1.236717e-20	-2.098959e-20	8.622427e-21	0

    writing force and moment coefficient files.

Time = 18

DILUPBiCGStab:  Solving for Ux, Initial residual = 0.000802495, Final residual = 4.632632e-06, No Iterations 2
DILUPBiCGStab:  Solving for Uz, Initial residual = 0.01276323, Final residual = 9.841328e-05, No Iterations 1
GAMG:  Solving for p, Initial residual = 0.001179044, Final residual = 1.766081e-05, No Iterations 100
GAMG:  Solving for p, Initial residual = 0.0001870031, Final residual = 1.05363e-05, No Iterations 100
GAMG:  Solving for p, Initial residual = 6.004667e-05, Final residual = 7.527378e-06, No Iterations 100
time step continuity errors : sum local = 4.858818e-06, global = 2.746988e-08, cumulative = 3.143025e-07
DILUPBiCGStab:  Solving for omega, Initial residual = 6.195887e-05, Final residual = 1.111828e-06, No Iterations 1
DILUPBiCGStab:  Solving for k, Initial residual = 0.01407821, Final residual = 0.0004757536, No Iterations 1
ExecutionTime = 14.54 s  ClockTime = 15 s

forceCoeffs forceCoefficientMonitorOnUpperLowerTipInDefault write:
    Coefficient	Total	Pressure	Viscous	Internal
    Cd:	0.007547994	0.003891131	0.003656863	0
    Cd(f):	0.003773997	0.001945566	0.001828432	0
    Cd(r):	0.003773997	0.001945566	0.001828432	0
    Cl:	3.495664e-05	1.544111e-07	3.480223e-05	0
    Cl(f):	1.117536e-05	-6.268745e-06	1.744411e-05	0
    Cl(r):	2.378128e-05	6.423156e-06	1.735812e-05	0
    CmPitch:	-6.302958e-06	-6.34595e-06	4.299277e-08	0
    CmRoll:	-3.226267e-23	4.86737e-24	-3.713004e-23	0
    CmYaw:	2.096952e-20	2.09769e-20	-7.376415e-24	0
    Cs:	1.722616e-20	1.342e-23	1.721274e-20	0
    Cs(f):	2.95826e-20	2.098361e-20	8.598993e-21	0
    Cs(r):	-1.235644e-20	-2.097019e-20	8.613746e-21	0

    writing force and moment coefficient files.

Time = 19

DILUPBiCGStab:  Solving for Ux, Initial residual = 0.0007536978, Final residual = 3.944447e-06, No Iterations 2
DILUPBiCGStab:  Solving for Uz, Initial residual = 0.01247762, Final residual = 8.537882e-05, No Iterations 1
GAMG:  Solving for p, Initial residual = 0.001024306, Final residual = 1.690622e-05, No Iterations 100
GAMG:  Solving for p, Initial residual = 0.0001658128, Final residual = 1.018503e-05, No Iterations 100
GAMG:  Solving for p, Initial residual = 5.379014e-05, Final residual = 7.262499e-06, No Iterations 100
time step continuity errors : sum local = 4.711185e-06, global = 2.620354e-08, cumulative = 3.40506e-07
DILUPBiCGStab:  Solving for omega, Initial residual = 5.896131e-05, Final residual = 1.039431e-06, No Iterations 1
DILUPBiCGStab:  Solving for k, Initial residual = 0.0131271, Final residual = 0.0004320306, No Iterations 1
ExecutionTime = 15.46 s  ClockTime = 16 s

forceCoeffs forceCoefficientMonitorOnUpperLowerTipInDefault write:
    Coefficient	Total	Pressure	Viscous	Internal
    Cd:	0.007574549	0.003979217	0.003595332	0
    Cd(f):	0.003787274	0.001989608	0.001797666	0
    Cd(r):	0.003787274	0.001989608	0.001797666	0
    Cl:	2.968687e-05	1.356007e-07	2.955127e-05	0
    Cl(f):	9.695228e-06	-5.128382e-06	1.482361e-05	0
    Cl(r):	1.999165e-05	5.263983e-06	1.472766e-05	0
    CmPitch:	-5.148209e-06	-5.196182e-06	4.797308e-08	0
    CmRoll:	-3.2133e-23	4.855685e-24	-3.698869e-23	0
    CmYaw:	2.09365e-20	2.094302e-20	-6.528705e-24	0
    Cs:	1.719871e-20	1.292303e-23	1.718579e-20	0
    Cs(f):	2.953585e-20	2.094949e-20	8.586364e-21	0
    Cs(r):	-1.233714e-20	-2.093656e-20	8.599422e-21	0

    writing force and moment coefficient files.

Time = 20

DILUPBiCGStab:  Solving for Ux, Initial residual = 0.0007077549, Final residual = 3.348954e-06, No Iterations 2
DILUPBiCGStab:  Solving for Uz, Initial residual = 0.01221598, Final residual = 7.392979e-05, No Iterations 1
GAMG:  Solving for p, Initial residual = 0.000893763, Final residual = 1.575059e-05, No Iterations 100
GAMG:  Solving for p, Initial residual = 0.0001452171, Final residual = 9.590119e-06, No Iterations 100
GAMG:  Solving for p, Initial residual = 4.77253e-05, Final residual = 6.851956e-06, No Iterations 100
time step continuity errors : sum local = 4.466741e-06, global = 2.340059e-08, cumulative = 3.639066e-07
DILUPBiCGStab:  Solving for omega, Initial residual = 5.616553e-05, Final residual = 9.78549e-07, No Iterations 1
DILUPBiCGStab:  Solving for k, Initial residual = 0.01229991, Final residual = 0.0003946229, No Iterations 1
ExecutionTime = 16.45 s  ClockTime = 17 s

forceCoeffs forceCoefficientMonitorOnUpperLowerTipInDefault write:
    Coefficient	Total	Pressure	Viscous	Internal
    Cd:	0.007593161	0.00406143	0.003531731	0
    Cd(f):	0.00379658	0.002030715	0.001765865	0
    Cd(r):	0.00379658	0.002030715	0.001765865	0
    Cl:	2.611221e-05	1.448972e-07	2.596731e-05	0
    Cl(f):	8.538287e-06	-4.497718e-06	1.3036e-05	0
    Cl(r):	1.757392e-05	4.642615e-06	1.293131e-05	0
    CmPitch:	-4.517818e-06	-4.570166e-06	5.234879e-08	0
    CmRoll:	-3.223151e-23	4.827858e-24	-3.705936e-23	0
    CmYaw:	2.088966e-20	2.089548e-20	-5.814289e-24	0
    Cs:	1.716e-20	1.250891e-23	1.71475e-20	0
    Cs(f):	2.946967e-20	2.090173e-20	8.567934e-21	0
    Cs(r):	-1.230966e-20	-2.088922e-20	8.579562e-21	0

    writing force and moment coefficient files.

Time = 21

DILUPBiCGStab:  Solving for Ux, Initial residual = 0.0006655965, Final residual = 2.847224e-06, No Iterations 2
DILUPBiCGStab:  Solving for Uz, Initial residual = 0.01198424, Final residual = 6.439866e-05, No Iterations 1
GAMG:  Solving for p, Initial residual = 0.0007806149, Final residual = 1.45886e-05, No Iterations 100
GAMG:  Solving for p, Initial residual = 0.0001263018, Final residual = 9.001274e-06, No Iterations 100
GAMG:  Solving for p, Initial residual = 4.232078e-05, Final residual = 6.456454e-06, No Iterations 100
time step continuity errors : sum local = 4.229535e-06, global = 2.005539e-08, cumulative = 3.83962e-07
DILUPBiCGStab:  Solving for omega, Initial residual = 5.372299e-05, Final residual = 9.230033e-07, No Iterations 1
DILUPBiCGStab:  Solving for k, Initial residual = 0.01156798, Final residual = 0.0003621292, No Iterations 1
ExecutionTime = 17.41 s  ClockTime = 18 s

forceCoeffs forceCoefficientMonitorOnUpperLowerTipInDefault write:
    Coefficient	Total	Pressure	Viscous	Internal
    Cd:	0.00760433	0.004137726	0.003466604	0
    Cd(f):	0.003802165	0.002068863	0.001733302	0
    Cd(r):	0.003802165	0.002068863	0.001733302	0
    Cl:	2.341881e-05	1.706306e-07	2.324818e-05	0
    Cl(f):	7.603769e-06	-4.076873e-06	1.168064e-05	0
    Cl(r):	1.581504e-05	4.247504e-06	1.156754e-05	0
    CmPitch:	-4.105637e-06	-4.162188e-06	5.655168e-08	0
    CmRoll:	-3.243776e-23	4.784148e-24	-3.72219e-23	0
    CmYaw:	2.083231e-20	2.08375e-20	-5.197884e-24	0
    Cs:	1.711269e-20	1.215549e-23	1.710054e-20	0
    Cs(f):	2.938865e-20	2.084358e-20	8.545071e-21	0
    Cs(r):	-1.227596e-20	-2.083143e-20	8.555467e-21	0

    writing force and moment coefficient files.

Time = 22

DILUPBiCGStab:  Solving for Ux, Initial residual = 0.0006275636, Final residual = 2.434739e-06, No Iterations 2
DILUPBiCGStab:  Solving for Uz, Initial residual = 0.01177806, Final residual = 5.664135e-05, No Iterations 1
GAMG:  Solving for p, Initial residual = 0.0006804105, Final residual = 1.35093e-05, No Iterations 100
GAMG:  Solving for p, Initial residual = 0.0001111919, Final residual = 8.441847e-06, No Iterations 100
GAMG:  Solving for p, Initial residual = 3.746166e-05, Final residual = 6.048341e-06, No Iterations 100
time step continuity errors : sum local = 3.980472e-06, global = 1.686234e-08, cumulative = 4.008243e-07
DILUPBiCGStab:  Solving for omega, Initial residual = 5.152144e-05, Final residual = 8.731002e-07, No Iterations 1
DILUPBiCGStab:  Solving for k, Initial residual = 0.01091918, Final residual = 0.0003337793, No Iterations 1
ExecutionTime = 18.33 s  ClockTime = 19 s

forceCoeffs forceCoefficientMonitorOnUpperLowerTipInDefault write:
    Coefficient	Total	Pressure	Viscous	Internal
    Cd:	0.007611247	0.004208353	0.003402894	0
    Cd(f):	0.003805624	0.002104177	0.001701447	0
    Cd(r):	0.003805624	0.002104177	0.001701447	0
    Cl:	2.109223e-05	2.019707e-07	2.089026e-05	0
    Cl(f):	6.83473e-06	-3.671338e-06	1.050607e-05	0
    Cl(r):	1.42575e-05	3.873309e-06	1.038419e-05	0
    CmPitch:	-3.711384e-06	-3.772323e-06	6.093928e-08	0
    CmRoll:	-3.271995e-23	4.728772e-24	-3.744872e-23	0
    CmYaw:	2.076897e-20	2.077364e-20	-4.672869e-24	0
    Cs:	1.706043e-20	1.177753e-23	1.704865e-20	0
    Cs(f):	2.929918e-20	2.077953e-20	8.519652e-21	0
    Cs(r):	-1.223876e-20	-2.076775e-20	8.528998e-21	0

    writing force and moment coefficient files.

Time = 23

DILUPBiCGStab:  Solving for Ux, Initial residual = 0.0005925293, Final residual = 2.104781e-06, No Iterations 2
DILUPBiCGStab:  Solving for Uz, Initial residual = 0.01159283, Final residual = 5.035666e-05, No Iterations 1
GAMG:  Solving for p, Initial residual = 0.0005946571, Final residual = 1.239672e-05, No Iterations 100
GAMG:  Solving for p, Initial residual = 9.906099e-05, Final residual = 7.804389e-06, No Iterations 100
GAMG:  Solving for p, Initial residual = 3.30716e-05, Final residual = 5.576607e-06, No Iterations 100
time step continuity errors : sum local = 3.686321e-06, global = 1.402552e-08, cumulative = 4.148499e-07
DILUPBiCGStab:  Solving for omega, Initial residual = 4.938673e-05, Final residual = 8.288679e-07, No Iterations 1
DILUPBiCGStab:  Solving for k, Initial residual = 0.01034144, Final residual = 0.0003087925, No Iterations 1
ExecutionTime = 19.13 s  ClockTime = 20 s

forceCoeffs forceCoefficientMonitorOnUpperLowerTipInDefault write:
    Coefficient	Total	Pressure	Viscous	Internal
    Cd:	0.007616632	0.004273666	0.003342966	0
    Cd(f):	0.003808316	0.002136833	0.001671483	0
    Cd(r):	0.003808316	0.002136833	0.001671483	0
    Cl:	1.906112e-05	2.304145e-07	1.88307e-05	0
    Cl(f):	6.149995e-06	-3.330944e-06	9.480939e-06	0
    Cl(r):	1.291112e-05	3.561359e-06	9.349764e-06	0
    CmPitch:	-3.380564e-06	-3.446151e-06	6.558726e-08	0
    CmRoll:	-3.305318e-23	4.665728e-24	-3.771891e-23	0
    CmYaw:	2.069867e-20	2.070286e-20	-4.19124e-24	0
    Cs:	1.700242e-20	1.142719e-23	1.6991e-20	0
    Cs(f):	2.919988e-20	2.070857e-20	8.491307e-21	0
    Cs(r):	-1.219746e-20	-2.069715e-20	8.49969e-21	0

    writing force and moment coefficient files.

Time = 24

DILUPBiCGStab:  Solving for Ux, Initial residual = 0.0005601967, Final residual = 1.838715e-06, No Iterations 2
DILUPBiCGStab:  Solving for Uz, Initial residual = 0.01142424, Final residual = 4.521268e-05, No Iterations 1
GAMG:  Solving for p, Initial residual = 0.0005241638, Final residual = 1.120334e-05, No Iterations 100
GAMG:  Solving for p, Initial residual = 8.866044e-05, Final residual = 7.091956e-06, No Iterations 100
GAMG:  Solving for p, Initial residual = 2.945285e-05, Final residual = 5.06386e-06, No Iterations 100
time step continuity errors : sum local = 3.361698e-06, global = 1.15967e-08, cumulative = 4.264466e-07
DILUPBiCGStab:  Solving for omega, Initial residual = 4.743474e-05, Final residual = 7.91453e-07, No Iterations 1
DILUPBiCGStab:  Solving for k, Initial residual = 0.009824352, Final residual = 0.0002865327, No Iterations 1
ExecutionTime = 19.99 s  ClockTime = 20 s

forceCoeffs forceCoefficientMonitorOnUpperLowerTipInDefault write:
    Coefficient	Total	Pressure	Viscous	Internal
    Cd:	0.007621198	0.004333924	0.003287275	0
    Cd(f):	0.003810599	0.002166962	0.001643637	0
    Cd(r):	0.003810599	0.002166962	0.001643637	0
    Cl:	1.722102e-05	2.532928e-07	1.696772e-05	0
    Cl(f):	5.505355e-06	-3.048999e-06	8.554353e-06	0
    Cl(r):	1.171566e-05	3.302291e-06	8.413371e-06	0
    CmPitch:	-3.105154e-06	-3.175645e-06	7.049117e-08	0
    CmRoll:	-3.33126e-23	4.598632e-24	-3.791123e-23	0
    CmYaw:	2.061965e-20	2.062337e-20	-3.72856e-24	0
    Cs:	1.693719e-20	1.104864e-23	1.692614e-20	0
    Cs(f):	2.908824e-20	2.06289e-20	8.45934e-21	0
    Cs(r):	-1.215105e-20	-2.061785e-20	8.466797e-21	0

    writing force and moment coefficient files.

Time = 25

DILUPBiCGStab:  Solving for Ux, Initial residual = 0.0005306155, Final residual = 1.623217e-06, No Iterations 2
DILUPBiCGStab:  Solving for Uz, Initial residual = 0.01127116, Final residual = 4.097538e-05, No Iterations 1
GAMG:  Solving for p, Initial residual = 0.0004653359, Final residual = 1.009066e-05, No Iterations 100
GAMG:  Solving for p, Initial residual = 7.934131e-05, Final residual = 6.432177e-06, No Iterations 100
GAMG:  Solving for p, Initial residual = 2.632306e-05, Final residual = 4.618316e-06, No Iterations 100
time step continuity errors : sum local = 3.078489e-06, global = 9.731707e-09, cumulative = 4.361783e-07
DILUPBiCGStab:  Solving for omega, Initial residual = 4.563975e-05, Final residual = 7.612876e-07, No Iterations 1
DILUPBiCGStab:  Solving for k, Initial residual = 0.009360237, Final residual = 0.0002665588, No Iterations 1
ExecutionTime = 20.86 s  ClockTime = 21 s

forceCoeffs forceCoefficientMonitorOnUpperLowerTipInDefault write:
    Coefficient	Total	Pressure	Viscous	Internal
    Cd:	0.007624604	0.00438941	0.003235195	0
    Cd(f):	0.003812302	0.002194705	0.001617597	0
    Cd(r):	0.003812302	0.002194705	0.001617597	0
    Cl:	1.55282e-05	2.695494e-07	1.525865e-05	0
    Cl(f):	4.911425e-06	-2.793391e-06	7.704816e-06	0
    Cl(r):	1.061678e-05	3.062941e-06	7.553837e-06	0
    CmPitch:	-2.852677e-06	-2.928166e-06	7.54895e-08	0
    CmRoll:	-3.337404e-23	4.530759e-24	-3.79048e-23	0
    CmYaw:	2.053364e-20	2.053693e-20	-3.295798e-24	0
    Cs:	1.686615e-20	1.063048e-23	1.685552e-20	0
    Cs(f):	2.896671e-20	2.054225e-20	8.424462e-21	0
    Cs(r):	-1.210056e-20	-2.053162e-20	8.431054e-21	0

    writing force and moment coefficient files.

Time = 26

DILUPBiCGStab:  Solving for Ux, Initial residual = 0.0005039007, Final residual = 1.436447e-06, No Iterations 2
DILUPBiCGStab:  Solving for Uz, Initial residual = 0.0111299, Final residual = 3.743436e-05, No Iterations 1
GAMG:  Solving for p, Initial residual = 0.0004138699, Final residual = 9.140947e-06, No Iterations 100
GAMG:  Solving for p, Initial residual = 7.166442e-05, Final residual = 5.854003e-06, No Iterations 100
GAMG:  Solving for p, Initial residual = 2.377781e-05, Final residual = 4.231754e-06, No Iterations 100
time step continuity errors : sum local = 2.831866e-06, global = 8.316816e-09, cumulative = 4.444951e-07
DILUPBiCGStab:  Solving for omega, Initial residual = 4.39909e-05, Final residual = 7.366733e-07, No Iterations 1
DILUPBiCGStab:  Solving for k, Initial residual = 0.008941254, Final residual = 0.0002485193, No Iterations 1
ExecutionTime = 21.78 s  ClockTime = 22 s

forceCoeffs forceCoefficientMonitorOnUpperLowerTipInDefault write:
    Coefficient	Total	Pressure	Viscous	Internal
    Cd:	0.007626514	0.00444036	0.003186154	0
    Cd(f):	0.003813257	0.00222018	0.001593077	0
    Cd(r):	0.003813257	0.00222018	0.001593077	0
    Cl:	1.393042e-05	2.795854e-07	1.365084e-05	0
    Cl(f):	4.377566e-06	-2.52835e-06	6.905916e-06	0
    Cl(r):	9.552855e-06	2.807935e-06	6.74492e-06	0
    CmPitch:	-2.587644e-06	-2.668142e-06	8.049778e-08	0
    CmRoll:	-3.322344e-23	4.464599e-24	-3.768804e-23	0
    CmYaw:	2.044411e-20	2.044698e-20	-2.874084e-24	0
    Cs:	1.679227e-20	1.028821e-23	1.678198e-20	0
    Cs(f):	2.884024e-20	2.045213e-20	8.388117e-21	0
    Cs(r):	-1.204797e-20	-2.044184e-20	8.393865e-21	0

    writing force and moment coefficient files.

Time = 27

DILUPBiCGStab:  Solving for Ux, Initial residual = 0.0004799457, Final residual = 1.249555e-06, No Iterations 2
DILUPBiCGStab:  Solving for Uz, Initial residual = 0.01099833, Final residual = 3.448725e-05, No Iterations 1
GAMG:  Solving for p, Initial residual = 0.0003712443, Final residual = 8.329797e-06, No Iterations 100
GAMG:  Solving for p, Initial residual = 6.52351e-05, Final residual = 5.355744e-06, No Iterations 100
GAMG:  Solving for p, Initial residual = 2.16092e-05, Final residual = 3.902264e-06, No Iterations 100
time step continuity errors : sum local = 2.621149e-06, global = 6.916391e-09, cumulative = 4.514115e-07
DILUPBiCGStab:  Solving for omega, Initial residual = 4.24438e-05, Final residual = 7.141663e-07, No Iterations 1
DILUPBiCGStab:  Solving for k, Initial residual = 0.008561272, Final residual = 0.0002321584, No Iterations 1
ExecutionTime = 22.73 s  ClockTime = 23 s

forceCoeffs forceCoefficientMonitorOnUpperLowerTipInDefault write:
    Coefficient	Total	Pressure	Viscous	Internal
    Cd:	0.007626707	0.004487018	0.003139688	0
    Cd(f):	0.003813353	0.002243509	0.001569844	0
    Cd(r):	0.003813353	0.002243509	0.001569844	0
    Cl:	1.24799e-05	2.839388e-07	1.219596e-05	0
    Cl(f):	3.91117e-06	-2.272265e-06	6.183435e-06	0
    Cl(r):	8.568726e-06	2.556204e-06	6.012522e-06	0
    CmPitch:	-2.328778e-06	-2.414234e-06	8.545656e-08	0
    CmRoll:	-3.296712e-23	4.400835e-24	-3.736796e-23	0
    CmYaw:	2.035199e-20	2.035448e-20	-2.488525e-24	0
    Cs:	1.671616e-20	9.843293e-24	1.670632e-20	0
    Cs(f):	2.871007e-20	2.03594e-20	8.350672e-21	0
    Cs(r):	-1.199391e-20	-2.034956e-20	8.355649e-21	0

    writing force and moment coefficient files.

Time = 28

DILUPBiCGStab:  Solving for Ux, Initial residual = 0.0004585702, Final residual = 1.086812e-06, No Iterations 2
DILUPBiCGStab:  Solving for Uz, Initial residual = 0.01087579, Final residual = 3.202854e-05, No Iterations 1
GAMG:  Solving for p, Initial residual = 0.0003351233, Final residual = 7.589132e-06, No Iterations 100
GAMG:  Solving for p, Initial residual = 5.974863e-05, Final residual = 4.905648e-06, No Iterations 100
GAMG:  Solving for p, Initial residual = 1.974247e-05, Final residual = 3.599663e-06, No Iterations 100
time step continuity errors : sum local = 2.426526e-06, global = 5.446063e-09, cumulative = 4.568575e-07
DILUPBiCGStab:  Solving for omega, Initial residual = 4.098663e-05, Final residual = 6.91599e-07, No Iterations 1
DILUPBiCGStab:  Solving for k, Initial residual = 0.008215414, Final residual = 0.0002172656, No Iterations 1
ExecutionTime = 23.61 s  ClockTime = 24 s

forceCoeffs forceCoefficientMonitorOnUpperLowerTipInDefault write:
    Coefficient	Total	Pressure	Viscous	Internal
    Cd:	0.007625281	0.004529648	0.003095633	0
    Cd(f):	0.00381264	0.002264824	0.001547816	0
    Cd(r):	0.00381264	0.002264824	0.001547816	0
    Cl:	1.117513e-05	2.834557e-07	1.089167e-05	0
    Cl(f):	3.502964e-06	-2.033175e-06	5.536139e-06	0
    Cl(r):	7.672163e-06	2.316631e-06	5.355532e-06	0
    CmPitch:	-2.0846e-06	-2.174903e-06	9.03032e-08	0
    CmRoll:	-3.267671e-23	4.3389e-24	-3.701561e-23	0
    CmYaw:	2.025618e-20	2.02583e-20	-2.114122e-24	0
    Cs:	1.663704e-20	9.422262e-24	1.662762e-20	0
    Cs(f):	2.85747e-20	2.026301e-20	8.311694e-21	0
    Cs(r):	-1.193766e-20	-2.025359e-20	8.315923e-21	0

    writing force and moment coefficient files.

Time = 29

DILUPBiCGStab:  Solving for Ux, Initial residual = 0.0004396627, Final residual = 9.954285e-07, No Iterations 2
DILUPBiCGStab:  Solving for Uz, Initial residual = 0.01076148, Final residual = 2.994668e-05, No Iterations 1
GAMG:  Solving for p, Initial residual = 0.0003043233, Final residual = 6.842869e-06, No Iterations 100
GAMG:  Solving for p, Initial residual = 5.482528e-05, Final residual = 4.474531e-06, No Iterations 100
GAMG:  Solving for p, Initial residual = 1.802682e-05, Final residual = 3.293102e-06, No Iterations 100
time step continuity errors : sum local = 2.227453e-06, global = 4.017487e-09, cumulative = 4.60875e-07
DILUPBiCGStab:  Solving for omega, Initial residual = 3.974883e-05, Final residual = 6.689765e-07, No Iterations 1
DILUPBiCGStab:  Solving for k, Initial residual = 0.007902249, Final residual = 0.0002037463, No Iterations 1
ExecutionTime = 24.52 s  ClockTime = 25 s

forceCoeffs forceCoefficientMonitorOnUpperLowerTipInDefault write:
    Coefficient	Total	Pressure	Viscous	Internal
    Cd:	0.007622338	0.004568468	0.00305387	0
    Cd(f):	0.003811169	0.002284234	0.001526935	0
    Cd(r):	0.003811169	0.002284234	0.001526935	0
    Cl:	9.991164e-06	2.792065e-07	9.711958e-06	0
    Cl(f):	3.133225e-06	-1.817769e-06	4.950995e-06	0
    Cl(r):	6.857939e-06	2.096976e-06	4.760963e-06	0
    CmPitch:	-1.862357e-06	-1.957373e-06	9.501575e-08	0
    CmRoll:	-3.236452e-23	4.278339e-24	-3.664285e-23	0
    CmYaw:	2.015608e-20	2.015784e-20	-1.76204e-24	0
    Cs:	1.655437e-20	8.986122e-24	1.654538e-20	0
    Cs(f):	2.843326e-20	2.016233e-20	8.270928e-21	0
    Cs(r):	-1.18789e-20	-2.015335e-20	8.274452e-21	0

    writing force and moment coefficient files.

Time = 30

DILUPBiCGStab:  Solving for Ux, Initial residual = 0.0004230298, Final residual = 9.731868e-07, No Iterations 2
DILUPBiCGStab:  Solving for Uz, Initial residual = 0.01065639, Final residual = 2.817805e-05, No Iterations 1
GAMG:  Solving for p, Initial residual = 0.0002767448, Final residual = 6.064736e-06, No Iterations 100
GAMG:  Solving for p, Initial residual = 5.010143e-05, Final residual = 3.986466e-06, No Iterations 100
GAMG:  Solving for p, Initial residual = 1.636428e-05, Final residual = 2.92035e-06, No Iterations 100
time step continuity errors : sum local = 1.982093e-06, global = 2.693495e-09, cumulative = 4.635685e-07
DILUPBiCGStab:  Solving for omega, Initial residual = 3.860115e-05, Final residual = 6.496902e-07, No Iterations 1
DILUPBiCGStab:  Solving for k, Initial residual = 0.007612525, Final residual = 0.0001912829, No Iterations 1
ExecutionTime = 25.44 s  ClockTime = 26 s

forceCoeffs forceCoefficientMonitorOnUpperLowerTipInDefault write:
    Coefficient	Total	Pressure	Viscous	Internal
    Cd:	0.007617595	0.004603612	0.003013983	0
    Cd(f):	0.003808797	0.002301806	0.001506991	0
    Cd(r):	0.003808797	0.002301806	0.001506991	0
    Cl:	8.949448e-06	2.723254e-07	8.677122e-06	0
    Cl(f):	2.774358e-06	-1.663755e-06	4.438113e-06	0
    Cl(r):	6.17509e-06	1.93608e-06	4.23901e-06	0
    CmPitch:	-1.700366e-06	-1.799918e-06	9.955146e-08	0
    CmRoll:	-3.201946e-23	4.220101e-24	-3.623957e-23	0
    CmYaw:	2.005472e-20	2.005616e-20	-1.445913e-24	0
    Cs:	1.647066e-20	8.53912e-24	1.646212e-20	0
    Cs(f):	2.829004e-20	2.006043e-20	8.229614e-21	0
    Cs(r):	-1.181939e-20	-2.005189e-20	8.232506e-21	0

    writing force and moment coefficient files.

Time = 31

DILUPBiCGStab:  Solving for Ux, Initial residual = 0.0004084567, Final residual = 9.839552e-07, No Iterations 2
DILUPBiCGStab:  Solving for Uz, Initial residual = 0.0105579, Final residual = 2.665269e-05, No Iterations 1
GAMG:  Solving for p, Initial residual = 0.0002520786, Final residual = 5.236624e-06, No Iterations 100
GAMG:  Solving for p, Initial residual = 4.576464e-05, Final residual = 3.421424e-06, No Iterations 100
GAMG:  Solving for p, Initial residual = 1.479445e-05, Final residual = 2.492045e-06, No Iterations 100
time step continuity errors : sum local = 1.696728e-06, global = 1.514763e-09, cumulative = 4.650833e-07
DILUPBiCGStab:  Solving for omega, Initial residual = 3.749543e-05, Final residual = 6.319392e-07, No Iterations 1
DILUPBiCGStab:  Solving for k, Initial residual = 0.007349358, Final residual = 0.0001799305, No Iterations 1
ExecutionTime = 26.34 s  ClockTime = 27 s

forceCoeffs forceCoefficientMonitorOnUpperLowerTipInDefault write:
    Coefficient	Total	Pressure	Viscous	Internal
    Cd:	0.007610754	0.004635179	0.002975575	0
    Cd(f):	0.003805377	0.00231759	0.001487787	0
    Cd(r):	0.003805377	0.00231759	0.001487787	0
    Cl:	8.048262e-06	2.638028e-07	7.784459e-06	0
    Cl(f):	2.42109e-06	-1.575034e-06	3.996124e-06	0
    Cl(r):	5.627171e-06	1.838836e-06	3.788335e-06	0
    CmPitch:	-1.603041e-06	-1.706935e-06	1.038942e-07	0
    CmRoll:	-3.16335e-23	4.164394e-24	-3.579789e-23	0
    CmYaw:	1.995306e-20	1.995423e-20	-1.168035e-24	0
    Cs:	1.638669e-20	8.056643e-24	1.637864e-20	0
    Cs(f):	2.814641e-20	1.995826e-20	8.188151e-21	0
    Cs(r):	-1.175972e-20	-1.99502e-20	8.190487e-21	0

    writing force and moment coefficient files.

Time = 32

DILUPBiCGStab:  Solving for Ux, Initial residual = 0.0003958452, Final residual = 1.00382e-06, No Iterations 2
DILUPBiCGStab:  Solving for Uz, Initial residual = 0.01046432, Final residual = 2.531734e-05, No Iterations 1
GAMG:  Solving for p, Initial residual = 0.0002304592, Final residual = 4.369367e-06, No Iterations 100
GAMG:  Solving for p, Initial residual = 4.173984e-05, Final residual = 2.801103e-06, No Iterations 100
GAMG:  Solving for p, Initial residual = 1.326351e-05, Final residual = 2.026092e-06, No Iterations 100
time step continuity errors : sum local = 1.38396e-06, global = 5.071359e-10, cumulative = 4.655904e-07
DILUPBiCGStab:  Solving for omega, Initial residual = 3.642918e-05, Final residual = 6.132199e-07, No Iterations 1
DILUPBiCGStab:  Solving for k, Initial residual = 0.007103751, Final residual = 0.0001693964, No Iterations 1
ExecutionTime = 27.24 s  ClockTime = 28 s

forceCoeffs forceCoefficientMonitorOnUpperLowerTipInDefault write:
    Coefficient	Total	Pressure	Viscous	Internal
    Cd:	0.007602045	0.004663318	0.002938727	0
    Cd(f):	0.003801023	0.002331659	0.001469363	0
    Cd(r):	0.003801023	0.002331659	0.001469363	0
    Cl:	7.218131e-06	2.543333e-07	6.963797e-06	0
    Cl(f):	2.084393e-06	-1.505557e-06	3.589951e-06	0
    Cl(r):	5.133737e-06	1.759891e-06	3.373846e-06	0
    CmPitch:	-1.524672e-06	-1.632724e-06	1.080522e-07	0
    CmRoll:	-3.120618e-23	4.111342e-24	-3.531752e-23	0
    CmYaw:	1.985111e-20	1.9852e-20	-8.903321e-25	0
    Cs:	1.630262e-20	7.731767e-24	1.629489e-20	0
    Cs(f):	2.800242e-20	1.985586e-20	8.146554e-21	0
    Cs(r):	-1.16998e-20	-1.984813e-20	8.148335e-21	0

    writing force and moment coefficient files.

Time = 33

DILUPBiCGStab:  Solving for Ux, Initial residual = 0.0003847078, Final residual = 1.016559e-06, No Iterations 2
DILUPBiCGStab:  Solving for Uz, Initial residual = 0.01037751, Final residual = 2.410714e-05, No Iterations 1
GAMG:  Solving for p, Initial residual = 0.0002129563, Final residual = 3.486311e-06, No Iterations 100
GAMG:  Solving for p, Initial residual = 3.827924e-05, Final residual = 2.170284e-06, No Iterations 100
GAMG:  Solving for p, Initial residual = 1.180732e-05, Final residual = 1.555796e-06, No Iterations 100
time step continuity errors : sum local = 1.065849e-06, global = -3.40417e-10, cumulative = 4.6525e-07
DILUPBiCGStab:  Solving for omega, Initial residual = 3.539191e-05, Final residual = 5.933545e-07, No Iterations 1
DILUPBiCGStab:  Solving for k, Initial residual = 0.006876649, Final residual = 0.0001596746, No Iterations 1
ExecutionTime = 28.09 s  ClockTime = 29 s

forceCoeffs forceCoefficientMonitorOnUpperLowerTipInDefault write:
    Coefficient	Total	Pressure	Viscous	Internal
    Cd:	0.007591942	0.004688268	0.002903674	0
    Cd(f):	0.003795971	0.002344134	0.001451837	0
    Cd(r):	0.003795971	0.002344134	0.001451837	0
    Cl:	6.418414e-06	2.442821e-07	6.174132e-06	0
    Cl(f):	1.784809e-06	-1.414469e-06	3.199278e-06	0
    Cl(r):	4.633605e-06	1.658751e-06	2.974854e-06	0
    CmPitch:	-1.424398e-06	-1.53661e-06	1.122121e-07	0
    CmRoll:	-3.073541e-23	4.060546e-24	-3.479595e-23	0
    CmYaw:	1.974765e-20	1.974828e-20	-6.247515e-25	0
    Cs:	1.621738e-20	7.482912e-24	1.62099e-20	0
    Cs(f):	2.785635e-20	1.975202e-20	8.104326e-21	0
    Cs(r):	-1.163896e-20	-1.974454e-20	8.105576e-21	0

    writing force and moment coefficient files.

Time = 34

DILUPBiCGStab:  Solving for Ux, Initial residual = 0.0003747401, Final residual = 1.015314e-06, No Iterations 2
DILUPBiCGStab:  Solving for Uz, Initial residual = 0.01029683, Final residual = 2.299838e-05, No Iterations 1
GAMG:  Solving for p, Initial residual = 0.0001974655, Final residual = 2.707631e-06, No Iterations 100
GAMG:  Solving for p, Initial residual = 3.507449e-05, Final residual = 1.59969e-06, No Iterations 100
GAMG:  Solving for p, Initial residual = 1.048582e-05, Final residual = 1.135547e-06, No Iterations 100
time step continuity errors : sum local = 7.801616e-07, global = -9.529621e-10, cumulative = 4.64297e-07
DILUPBiCGStab:  Solving for omega, Initial residual = 3.452637e-05, Final residual = 5.736362e-07, No Iterations 1
DILUPBiCGStab:  Solving for k, Initial residual = 0.006669236, Final residual = 0.0001507661, No Iterations 1
ExecutionTime = 29 s  ClockTime = 29 s

forceCoeffs forceCoefficientMonitorOnUpperLowerTipInDefault write:
    Coefficient	Total	Pressure	Viscous	Internal
    Cd:	0.00758098	0.004710373	0.002870607	0
    Cd(f):	0.00379049	0.002355187	0.001435303	0
    Cd(r):	0.00379049	0.002355187	0.001435303	0
    Cl:	5.677787e-06	2.339447e-07	5.443843e-06	0
    Cl(f):	1.539261e-06	-1.298978e-06	2.83824e-06	0
    Cl(r):	4.138526e-06	1.532923e-06	2.605603e-06	0
    CmPitch:	-1.299632e-06	-1.415951e-06	1.163186e-07	0
    CmRoll:	-3.017656e-23	4.012251e-24	-3.418881e-23	0
    CmYaw:	1.964387e-20	1.964423e-20	-3.61334e-25	0
    Cs:	1.613201e-20	7.369763e-24	1.612464e-20	0
    Cs(f):	2.770987e-20	1.964791e-20	8.061956e-21	0
    Cs(r):	-1.157787e-20	-1.964055e-20	8.062679e-21	0

    writing force and moment coefficient files.

Time = 35

DILUPBiCGStab:  Solving for Ux, Initial residual = 0.0003656887, Final residual = 1.000111e-06, No Iterations 2
DILUPBiCGStab:  Solving for Uz, Initial residual = 0.01022062, Final residual = 2.198053e-05, No Iterations 1
GAMG:  Solving for p, Initial residual = 0.0001827235, Final residual = 2.049481e-06, No Iterations 100
GAMG:  Solving for p, Initial residual = 3.220989e-05, Final residual = 1.113583e-06, No Iterations 100
GAMG:  Solving for p, Initial residual = 9.398924e-06, Final residual = 7.700963e-07, No Iterations 100
time step continuity errors : sum local = 5.306855e-07, global = -1.349316e-09, cumulative = 4.629477e-07
DILUPBiCGStab:  Solving for omega, Initial residual = 3.374134e-05, Final residual = 5.576891e-07, No Iterations 1
DILUPBiCGStab:  Solving for k, Initial residual = 0.006476662, Final residual = 0.0001425199, No Iterations 1
ExecutionTime = 29.87 s  ClockTime = 30 s

forceCoeffs forceCoefficientMonitorOnUpperLowerTipInDefault write:
    Coefficient	Total	Pressure	Viscous	Internal
    Cd:	0.007569526	0.00473005	0.002839477	0
    Cd(f):	0.003784763	0.002365025	0.001419738	0
    Cd(r):	0.003784763	0.002365025	0.001419738	0
    Cl:	5.041904e-06	2.234712e-07	4.818433e-06	0
    Cl(f):	1.354773e-06	-1.174767e-06	2.52954e-06	0
    Cl(r):	3.687132e-06	1.398238e-06	2.288894e-06	0
    CmPitch:	-1.166179e-06	-1.286502e-06	1.203231e-07	0
    CmRoll:	-2.953937e-23	3.96649e-24	-3.350586e-23	0
    CmYaw:	1.954018e-20	1.95403e-20	-1.225199e-25	0
    Cs:	1.604673e-20	7.27512e-24	1.603945e-20	0
    Cs(f):	2.756354e-20	1.954394e-20	8.019604e-21	0
    Cs(r):	-1.151681e-20	-1.953666e-20	8.019849e-21	0

    writing force and moment coefficient files.

Time = 36

DILUPBiCGStab:  Solving for Ux, Initial residual = 0.0003572347, Final residual = 9.754965e-07, No Iterations 2
DILUPBiCGStab:  Solving for Uz, Initial residual = 0.01014874, Final residual = 2.102333e-05, No Iterations 1
GAMG:  Solving for p, Initial residual = 0.0001700142, Final residual = 1.723932e-06, No Iterations 100
GAMG:  Solving for p, Initial residual = 3.013026e-05, Final residual = 7.146275e-07, No Iterations 100
GAMG:  Solving for p, Initial residual = 8.453524e-06, Final residual = 4.609985e-07, No Iterations 100
time step continuity errors : sum local = 3.186458e-07, global = -1.486991e-09, cumulative = 4.614607e-07
DILUPBiCGStab:  Solving for omega, Initial residual = 3.296648e-05, Final residual = 5.421828e-07, No Iterations 1
DILUPBiCGStab:  Solving for k, Initial residual = 0.006293887, Final residual = 0.0001347896, No Iterations 1
ExecutionTime = 30.75 s  ClockTime = 31 s

forceCoeffs forceCoefficientMonitorOnUpperLowerTipInDefault write:
    Coefficient	Total	Pressure	Viscous	Internal
    Cd:	0.007557927	0.004747693	0.002810234	0
    Cd(f):	0.003778963	0.002373846	0.001405117	0
    Cd(r):	0.003778963	0.002373846	0.001405117	0
    Cl:	4.506885e-06	2.13013e-07	4.293872e-06	0
    Cl(f):	1.2279e-06	-1.043216e-06	2.271116e-06	0
    Cl(r):	3.278984e-06	1.256229e-06	2.022756e-06	0
    CmPitch:	-1.025542e-06	-1.149722e-06	1.241802e-07	0
    CmRoll:	-2.884697e-23	3.922946e-24	-3.276991e-23	0
    CmYaw:	1.943657e-20	1.943646e-20	1.087236e-25	0
    Cs:	1.59616e-20	7.256279e-24	1.595434e-20	0
    Cs(f):	2.741737e-20	1.944009e-20	7.977279e-21	0
    Cs(r):	-1.145577e-20	-1.943283e-20	7.977062e-21	0

    writing force and moment coefficient files.

Time = 37

DILUPBiCGStab:  Solving for Ux, Initial residual = 0.0003493425, Final residual = 9.476915e-07, No Iterations 2
DILUPBiCGStab:  Solving for Uz, Initial residual = 0.01008183, Final residual = 2.012881e-05, No Iterations 1
GAMG:  Solving for p, Initial residual = 0.0001588651, Final residual = 1.622438e-06, No Iterations 100
GAMG:  Solving for p, Initial residual = 2.850041e-05, Final residual = 6.492826e-07, No Iterations 100
GAMG:  Solving for p, Initial residual = 7.879683e-06, Final residual = 4.000225e-07, No Iterations 100
time step continuity errors : sum local = 2.772167e-07, global = -1.337627e-09, cumulative = 4.601231e-07
DILUPBiCGStab:  Solving for omega, Initial residual = 3.219312e-05, Final residual = 5.256013e-07, No Iterations 1
DILUPBiCGStab:  Solving for k, Initial residual = 0.006126847, Final residual = 0.0001277178, No Iterations 1
ExecutionTime = 31.62 s  ClockTime = 32 s

forceCoeffs forceCoefficientMonitorOnUpperLowerTipInDefault write:
    Coefficient	Total	Pressure	Viscous	Internal
    Cd:	0.007546574	0.004763643	0.002782931	0
    Cd(f):	0.003773287	0.002381822	0.001391466	0
    Cd(r):	0.003773287	0.002381822	0.001391466	0
    Cl:	4.061406e-06	2.027023e-07	3.858703e-06	0
    Cl(f):	1.150966e-06	-9.062597e-07	2.057226e-06	0
    Cl(r):	2.910439e-06	1.108962e-06	1.801477e-06	0
    CmPitch:	-8.797366e-07	-1.007611e-06	1.278742e-07	0
    CmRoll:	-2.811106e-23	3.880982e-24	-3.199204e-23	0
    CmYaw:	1.933288e-20	1.933255e-20	3.282177e-25	0
    Cs:	1.587643e-20	7.274729e-24	1.586916e-20	0
    Cs(f):	2.72711e-20	1.933619e-20	7.934908e-21	0
    Cs(r):	-1.139466e-20	-1.932891e-20	7.934251e-21	0

    writing force and moment coefficient files.

Time = 38

DILUPBiCGStab:  Solving for Ux, Initial residual = 0.0003419595, Final residual = 9.209768e-07, No Iterations 2
DILUPBiCGStab:  Solving for Uz, Initial residual = 0.01001903, Final residual = 1.931708e-05, No Iterations 1
GAMG:  Solving for p, Initial residual = 0.0001487819, Final residual = 1.685813e-06, No Iterations 100
GAMG:  Solving for p, Initial residual = 2.712606e-05, Final residual = 7.581086e-07, No Iterations 100
GAMG:  Solving for p, Initial residual = 7.562912e-06, Final residual = 4.886099e-07, No Iterations 100
time step continuity errors : sum local = 3.396302e-07, global = -1.034377e-09, cumulative = 4.590887e-07
DILUPBiCGStab:  Solving for omega, Initial residual = 3.147831e-05, Final residual = 5.083006e-07, No Iterations 1
DILUPBiCGStab:  Solving for k, Initial residual = 0.005970643, Final residual = 0.0001211227, No Iterations 1
ExecutionTime = 32.49 s  ClockTime = 33 s

forceCoeffs forceCoefficientMonitorOnUpperLowerTipInDefault write:
    Coefficient	Total	Pressure	Viscous	Internal
    Cd:	0.007535858	0.00477817	0.002757687	0
    Cd(f):	0.003767929	0.002389085	0.001378844	0
    Cd(r):	0.003767929	0.002389085	0.001378844	0
    Cl:	3.695859e-06	1.925665e-07	3.503293e-06	0
    Cl(f):	1.110611e-06	-7.724239e-07	1.883035e-06	0
    Cl(r):	2.585248e-06	9.649904e-07	1.620258e-06	0
    CmPitch:	-7.373189e-07	-8.687072e-07	1.313883e-07	0
    CmRoll:	-2.73431e-23	3.840317e-24	-3.118341e-23	0
    CmYaw:	1.922941e-20	1.922886e-20	5.461507e-25	0
    Cs:	1.579152e-20	7.362593e-24	1.578415e-20	0
    Cs(f):	2.712517e-20	1.923254e-20	7.892623e-21	0
    Cs(r):	-1.133365e-20	-1.922518e-20	7.891531e-21	0

    writing force and moment coefficient files.

Time = 39

DILUPBiCGStab:  Solving for Ux, Initial residual = 0.0003350173, Final residual = 9.012163e-07, No Iterations 2
DILUPBiCGStab:  Solving for Uz, Initial residual = 0.009960421, Final residual = 1.858447e-05, No Iterations 1
GAMG:  Solving for p, Initial residual = 0.0001400269, Final residual = 1.803211e-06, No Iterations 100
GAMG:  Solving for p, Initial residual = 2.584254e-05, Final residual = 9.292326e-07, No Iterations 100
GAMG:  Solving for p, Initial residual = 7.328927e-06, Final residual = 6.119715e-07, No Iterations 100
time step continuity errors : sum local = 4.267145e-07, global = -7.444864e-10, cumulative = 4.583442e-07
DILUPBiCGStab:  Solving for omega, Initial residual = 3.086451e-05, Final residual = 4.914631e-07, No Iterations 1
DILUPBiCGStab:  Solving for k, Initial residual = 0.00581992, Final residual = 0.0001148262, No Iterations 1
ExecutionTime = 33.33 s  ClockTime = 34 s

forceCoeffs forceCoefficientMonitorOnUpperLowerTipInDefault write:
    Coefficient	Total	Pressure	Viscous	Internal
    Cd:	0.007526037	0.004791492	0.002734545	0
    Cd(f):	0.003763018	0.002395746	0.001367272	0
    Cd(r):	0.003763018	0.002395746	0.001367272	0
    Cl:	3.41257e-06	1.826096e-07	3.22996e-06	0
    Cl(f):	1.094069e-06	-6.556301e-07	1.749699e-06	0
    Cl(r):	2.318501e-06	8.382397e-07	1.480261e-06	0
    CmPitch:	-6.122156e-07	-7.469349e-07	1.347193e-07	0
    CmRoll:	-2.654619e-23	3.80095e-24	-3.034714e-23	0
    CmYaw:	1.912696e-20	1.912622e-20	7.363004e-25	0
    Cs:	1.570741e-20	7.40584e-24	1.570001e-20	0
    Cs(f):	2.698067e-20	1.912993e-20	7.850739e-21	0
    Cs(r):	-1.127325e-20	-1.912252e-20	7.849266e-21	0

    writing force and moment coefficient files.

Time = 40

DILUPBiCGStab:  Solving for Ux, Initial residual = 0.0003285545, Final residual = 8.874854e-07, No Iterations 2
DILUPBiCGStab:  Solving for Uz, Initial residual = 0.009906671, Final residual = 1.791912e-05, No Iterations 1
GAMG:  Solving for p, Initial residual = 0.0001315822, Final residual = 1.972633e-06, No Iterations 100
GAMG:  Solving for p, Initial residual = 2.477102e-05, Final residual = 1.094195e-06, No Iterations 100
GAMG:  Solving for p, Initial residual = 7.112835e-06, Final residual = 7.281051e-07, No Iterations 100
time step continuity errors : sum local = 5.089155e-07, global = -3.626838e-10, cumulative = 4.579816e-07
DILUPBiCGStab:  Solving for omega, Initial residual = 3.030019e-05, Final residual = 4.77923e-07, No Iterations 1
DILUPBiCGStab:  Solving for k, Initial residual = 0.005687139, Final residual = 0.0001091178, No Iterations 1
ExecutionTime = 34.23 s  ClockTime = 35 s

forceCoeffs forceCoefficientMonitorOnUpperLowerTipInDefault write:
    Coefficient	Total	Pressure	Viscous	Internal
    Cd:	0.007517399	0.004803805	0.002713594	0
    Cd(f):	0.003758699	0.002401902	0.001356797	0
    Cd(r):	0.003758699	0.002401902	0.001356797	0
    Cl:	3.156177e-06	1.72859e-07	2.983318e-06	0
    Cl(f):	1.094564e-06	-5.349849e-07	1.629549e-06	0
    Cl(r):	2.061613e-06	7.078438e-07	1.353769e-06	0
    CmPitch:	-4.835247e-07	-6.214144e-07	1.378896e-07	0
    CmRoll:	-2.571648e-23	3.762647e-24	-2.947912e-23	0
    CmYaw:	1.902586e-20	1.902495e-20	9.12749e-25	0
    Cs:	1.562442e-20	7.451666e-24	1.561697e-20	0
    Cs(f):	2.683808e-20	1.902868e-20	7.809399e-21	0
    Cs(r):	-1.121365e-20	-1.902122e-20	7.807574e-21	0

    writing force and moment coefficient files.

Time = 41

DILUPBiCGStab:  Solving for Ux, Initial residual = 0.0003226931, Final residual = 8.7778e-07, No Iterations 2
DILUPBiCGStab:  Solving for Uz, Initial residual = 0.009856862, Final residual = 1.732547e-05, No Iterations 1
GAMG:  Solving for p, Initial residual = 0.0001239916, Final residual = 2.134524e-06, No Iterations 100
GAMG:  Solving for p, Initial residual = 2.375619e-05, Final residual = 1.232017e-06, No Iterations 100
GAMG:  Solving for p, Initial residual = 6.92362e-06, Final residual = 8.200326e-07, No Iterations 100
time step continuity errors : sum local = 5.758314e-07, global = 9.696309e-11, cumulative = 4.580785e-07
DILUPBiCGStab:  Solving for omega, Initial residual = 2.977348e-05, Final residual = 4.640022e-07, No Iterations 1
DILUPBiCGStab:  Solving for k, Initial residual = 0.00555171, Final residual = 0.0001034944, No Iterations 1
ExecutionTime = 35.04 s  ClockTime = 35 s

forceCoeffs forceCoefficientMonitorOnUpperLowerTipInDefault write:
    Coefficient	Total	Pressure	Viscous	Internal
    Cd:	0.007510212	0.004815274	0.002694938	0
    Cd(f):	0.003755106	0.002407637	0.001347469	0
    Cd(r):	0.003755106	0.002407637	0.001347469	0
    Cl:	2.903027e-06	1.632587e-07	2.739769e-06	0
    Cl(f):	1.104814e-06	-4.059775e-07	1.510791e-06	0
    Cl(r):	1.798214e-06	5.692362e-07	1.228977e-06	0
    CmPitch:	-3.467e-07	-4.876068e-07	1.409068e-07	0
    CmRoll:	-2.486341e-23	3.724992e-24	-2.85884e-23	0
    CmYaw:	1.892525e-20	1.892416e-20	1.09254e-24	0
    Cs:	1.554188e-20	7.551096e-24	1.553433e-20	0
    Cs(f):	2.66962e-20	1.892794e-20	7.768259e-21	0
    Cs(r):	-1.115431e-20	-1.892039e-20	7.766074e-21	0

    writing force and moment coefficient files.

Time = 42

DILUPBiCGStab:  Solving for Ux, Initial residual = 0.0003172224, Final residual = 8.692491e-07, No Iterations 2
DILUPBiCGStab:  Solving for Uz, Initial residual = 0.009810861, Final residual = 1.681545e-05, No Iterations 1
GAMG:  Solving for p, Initial residual = 0.0001170754, Final residual = 2.254878e-06, No Iterations 100
GAMG:  Solving for p, Initial residual = 2.286108e-05, Final residual = 1.341218e-06, No Iterations 100
GAMG:  Solving for p, Initial residual = 6.754355e-06, Final residual = 8.876686e-07, No Iterations 100
time step continuity errors : sum local = 6.247834e-07, global = 5.6697e-10, cumulative = 4.586455e-07
DILUPBiCGStab:  Solving for omega, Initial residual = 2.918138e-05, Final residual = 4.498303e-07, No Iterations 1
DILUPBiCGStab:  Solving for k, Initial residual = 0.005429367, Final residual = 9.828132e-05, No Iterations 1
ExecutionTime = 35.93 s  ClockTime = 36 s

forceCoeffs forceCoefficientMonitorOnUpperLowerTipInDefault write:
    Coefficient	Total	Pressure	Viscous	Internal
    Cd:	0.00750465	0.004826047	0.002678604	0
    Cd(f):	0.003752325	0.002413023	0.001339302	0
    Cd(r):	0.003752325	0.002413023	0.001339302	0
    Cl:	2.6593e-06	1.537423e-07	2.505558e-06	0
    Cl(f):	1.120412e-06	-2.761216e-07	1.396534e-06	0
    Cl(r):	1.538887e-06	4.298639e-07	1.109024e-06	0
    CmPitch:	-2.092375e-07	-3.529928e-07	1.437553e-07	0
    CmRoll:	-2.401277e-23	3.687536e-24	-2.770031e-23	0
    CmYaw:	1.8824e-20	1.882273e-20	1.264608e-24	0
    Cs:	1.545881e-20	7.650902e-24	1.545116e-20	0
    Cs(f):	2.655341e-20	1.882656e-20	7.726846e-21	0
    Cs(r):	-1.109459e-20	-1.881891e-20	7.724317e-21	0

    writing force and moment coefficient files.

Time = 43

DILUPBiCGStab:  Solving for Ux, Initial residual = 0.000312336, Final residual = 8.636556e-07, No Iterations 2
DILUPBiCGStab:  Solving for Uz, Initial residual = 0.0097687, Final residual = 1.638428e-05, No Iterations 1
GAMG:  Solving for p, Initial residual = 0.0001113659, Final residual = 2.333666e-06, No Iterations 100
GAMG:  Solving for p, Initial residual = 2.196956e-05, Final residual = 1.419023e-06, No Iterations 100
GAMG:  Solving for p, Initial residual = 6.560185e-06, Final residual = 9.329125e-07, No Iterations 100
time step continuity errors : sum local = 6.600409e-07, global = 1.070462e-09, cumulative = 4.597159e-07
DILUPBiCGStab:  Solving for omega, Initial residual = 2.863723e-05, Final residual = 4.340759e-07, No Iterations 1
DILUPBiCGStab:  Solving for k, Initial residual = 0.005306922, Final residual = 9.330702e-05, No Iterations 1
ExecutionTime = 36.79 s  ClockTime = 37 s

forceCoeffs forceCoefficientMonitorOnUpperLowerTipInDefault write:
    Coefficient	Total	Pressure	Viscous	Internal
    Cd:	0.007500906	0.00483625	0.002664655	0
    Cd(f):	0.003750453	0.002418125	0.001332328	0
    Cd(r):	0.003750453	0.002418125	0.001332328	0
    Cl:	2.431905e-06	1.442316e-07	2.287673e-06	0
    Cl(f):	1.138718e-06	-1.515493e-07	1.290267e-06	0
    Cl(r):	1.293187e-06	2.957809e-07	9.974063e-07	0
    CmPitch:	-7.723483e-08	-2.236651e-07	1.464303e-07	0
    CmRoll:	-2.316388e-23	3.650044e-24	-2.681393e-23	0
    CmYaw:	1.872219e-20	1.872076e-20	1.431925e-24	0
    Cs:	1.537531e-20	7.772883e-24	1.536754e-20	0
    Cs(f):	2.640985e-20	1.872465e-20	7.685201e-21	0
    Cs(r):	-1.103454e-20	-1.871687e-20	7.682337e-21	0

    writing force and moment coefficient files.

Time = 44

DILUPBiCGStab:  Solving for Ux, Initial residual = 0.0003079365, Final residual = 8.593151e-07, No Iterations 2
DILUPBiCGStab:  Solving for Uz, Initial residual = 0.009731067, Final residual = 1.602259e-05, No Iterations 1
GAMG:  Solving for p, Initial residual = 0.0001059106, Final residual = 2.380217e-06, No Iterations 100
GAMG:  Solving for p, Initial residual = 2.133973e-05, Final residual = 1.469315e-06, No Iterations 100
GAMG:  Solving for p, Initial residual = 6.396343e-06, Final residual = 9.593607e-07, No Iterations 100
time step continuity errors : sum local = 6.803186e-07, global = 1.596703e-09, cumulative = 4.613126e-07
DILUPBiCGStab:  Solving for omega, Initial residual = 2.80945e-05, Final residual = 4.206849e-07, No Iterations 1
DILUPBiCGStab:  Solving for k, Initial residual = 0.005192997, Final residual = 8.864884e-05, No Iterations 1
ExecutionTime = 37.64 s  ClockTime = 38 s

forceCoeffs forceCoefficientMonitorOnUpperLowerTipInDefault write:
    Coefficient	Total	Pressure	Viscous	Internal
    Cd:	0.007499124	0.004845991	0.002653132	0
    Cd(f):	0.003749562	0.002422996	0.001326566	0
    Cd(r):	0.003749562	0.002422996	0.001326566	0
    Cl:	2.209002e-06	1.346721e-07	2.07433e-06	0
    Cl(f):	1.159569e-06	-2.651478e-08	1.186084e-06	0
    Cl(r):	1.049433e-06	1.611869e-07	8.882461e-07	0
    CmPitch:	5.506794e-08	-9.385083e-08	1.489188e-07	0
    CmRoll:	-2.231817e-23	3.61225e-24	-2.593042e-23	0
    CmYaw:	1.861937e-20	1.861778e-20	1.589537e-24	0
    Cs:	1.529097e-20	7.886466e-24	1.528308e-20	0
    Cs(f):	2.626485e-20	1.862172e-20	7.64313e-21	0
    Cs(r):	-1.097389e-20	-1.861384e-20	7.639951e-21	0

    writing force and moment coefficient files.

Time = 45

DILUPBiCGStab:  Solving for Ux, Initial residual = 0.0003041153, Final residual = 8.547651e-07, No Iterations 2
DILUPBiCGStab:  Solving for Uz, Initial residual = 0.00969687, Final residual = 1.571941e-05, No Iterations 1
GAMG:  Solving for p, Initial residual = 0.0001003401, Final residual = 2.432529e-06, No Iterations 100
GAMG:  Solving for p, Initial residual = 2.077437e-05, Final residual = 1.497278e-06, No Iterations 100
GAMG:  Solving for p, Initial residual = 6.252222e-06, Final residual = 9.68143e-07, No Iterations 100
time step continuity errors : sum local = 6.881302e-07, global = 2.134845e-09, cumulative = 4.634475e-07
DILUPBiCGStab:  Solving for omega, Initial residual = 2.763821e-05, Final residual = 4.090085e-07, No Iterations 1
DILUPBiCGStab:  Solving for k, Initial residual = 0.005086314, Final residual = 8.427342e-05, No Iterations 1
ExecutionTime = 38.46 s  ClockTime = 39 s

forceCoeffs forceCoefficientMonitorOnUpperLowerTipInDefault write:
    Coefficient	Total	Pressure	Viscous	Internal
    Cd:	0.007499485	0.004855361	0.002644124	0
    Cd(f):	0.003749743	0.00242768	0.001322062	0
    Cd(r):	0.003749743	0.00242768	0.001322062	0
    Cl:	1.998841e-06	1.2489e-07	1.873951e-06	0
    Cl(f):	1.180917e-06	9.275383e-08	1.088163e-06	0
    Cl(r):	8.179243e-07	3.213618e-08	7.857881e-07	0
    CmPitch:	1.814961e-07	3.030883e-08	1.511873e-07	0
    CmRoll:	-2.147972e-23	3.574357e-24	-2.505407e-23	0
    CmYaw:	1.851666e-20	1.851493e-20	1.730751e-24	0
    Cs:	1.520671e-20	7.984074e-24	1.519872e-20	0
    Cs(f):	2.612002e-20	1.851892e-20	7.601093e-21	0
    Cs(r):	-1.091331e-20	-1.851094e-20	7.597631e-21	0

    writing force and moment coefficient files.

Time = 46

DILUPBiCGStab:  Solving for Ux, Initial residual = 0.0003008155, Final residual = 8.533768e-07, No Iterations 2
DILUPBiCGStab:  Solving for Uz, Initial residual = 0.009666097, Final residual = 1.549367e-05, No Iterations 1
GAMG:  Solving for p, Initial residual = 9.594018e-05, Final residual = 2.468773e-06, No Iterations 100
GAMG:  Solving for p, Initial residual = 2.035557e-05, Final residual = 1.509076e-06, No Iterations 100
GAMG:  Solving for p, Initial residual = 6.10963e-06, Final residual = 9.646481e-07, No Iterations 100
time step continuity errors : sum local = 6.872359e-07, global = 2.676703e-09, cumulative = 4.661242e-07
[...]
time step continuity errors : sum local = 6.959939e-08, global = 2.914264e-09, cumulative = 3.701659e-07
DILUPBiCGStab:  Solving for omega, Initial residual = 9.521601e-07, Final residual = 9.521601e-07, No Iterations 0
DILUPBiCGStab:  Solving for k, Initial residual = 1.038314e-06, Final residual = 3.3308e-08, No Iterations 1
ExecutionTime = 392.34 s  ClockTime = 394 s

forceCoeffs forceCoefficientMonitorOnUpperLowerTipInDefault write:
    Coefficient	Total	Pressure	Viscous	Internal
    Cd:	0.008572045	0.006569088	0.002002957	0
    Cd(f):	0.004286022	0.003284544	0.001001479	0
    Cd(r):	0.004286022	0.003284544	0.001001479	0
    Cl:	-6.365904e-06	8.582446e-09	-6.374486e-06	0
    Cl(f):	-2.35712e-07	2.963107e-06	-3.198819e-06	0
    Cl(r):	-6.130192e-06	-2.954525e-06	-3.175667e-06	0
    CmPitch:	2.94724e-06	2.958816e-06	-1.157595e-08	0
    CmRoll:	-1.957093e-23	3.025544e-24	-2.259647e-23	0
    CmYaw:	1.740523e-20	1.739674e-20	8.492739e-24	0
    Cs:	1.429924e-20	1.890449e-23	1.428033e-20	0
    Cs(f):	2.455485e-20	1.740619e-20	7.14866e-21	0
    Cs(r):	-1.025561e-20	-1.738729e-20	7.131674e-21	0

    writing force and moment coefficient files.

Time = 1289

DILUPBiCGStab:  Solving for Ux, Initial residual = 3.381215e-07, Final residual = 5.444435e-08, No Iterations 1
DILUPBiCGStab:  Solving for Uz, Initial residual = 1.11737e-06, Final residual = 8.364209e-08, No Iterations 1
GAMG:  Solving for p, Initial residual = 1.072176e-07, Final residual = 8.121563e-08, No Iterations 1
GAMG:  Solving for p, Initial residual = 8.155131e-08, Final residual = 8.155131e-08, No Iterations 0
GAMG:  Solving for p, Initial residual = 8.155131e-08, Final residual = 8.155131e-08, No Iterations 0
time step continuity errors : sum local = 5.895336e-08, global = -1.591754e-09, cumulative = 3.685741e-07
DILUPBiCGStab:  Solving for omega, Initial residual = 9.521677e-07, Final residual = 9.521677e-07, No Iterations 0
DILUPBiCGStab:  Solving for k, Initial residual = 1.025692e-06, Final residual = 3.404274e-08, No Iterations 1
ExecutionTime = 392.42 s  ClockTime = 394 s

forceCoeffs forceCoefficientMonitorOnUpperLowerTipInDefault write:
    Coefficient	Total	Pressure	Viscous	Internal
    Cd:	0.008572046	0.006569088	0.002002958	0
    Cd(f):	0.004286023	0.003284544	0.001001479	0
    Cd(r):	0.004286023	0.003284544	0.001001479	0
    Cl:	-6.365505e-06	8.584482e-09	-6.37409e-06	0
    Cl(f):	-2.355045e-07	2.963114e-06	-3.198619e-06	0
    Cl(r):	-6.130001e-06	-2.95453e-06	-3.175471e-06	0
    CmPitch:	2.947248e-06	2.958822e-06	-1.157367e-08	0
    CmRoll:	-1.957094e-23	3.025544e-24	-2.259649e-23	0
    CmYaw:	1.740523e-20	1.739674e-20	8.492786e-24	0
    Cs:	1.429924e-20	1.890454e-23	1.428033e-20	0
    Cs(f):	2.455485e-20	1.740619e-20	7.148659e-21	0
    Cs(r):	-1.025561e-20	-1.738728e-20	7.131673e-21	0

    writing force and moment coefficient files.

Time = 1290

DILUPBiCGStab:  Solving for Ux, Initial residual = 3.372402e-07, Final residual = 5.360508e-08, No Iterations 1
DILUPBiCGStab:  Solving for Uz, Initial residual = 1.111706e-06, Final residual = 8.350729e-08, No Iterations 1
GAMG:  Solving for p, Initial residual = 9.404488e-08, Final residual = 9.404488e-08, No Iterations 0
GAMG:  Solving for p, Initial residual = 9.404488e-08, Final residual = 9.404488e-08, No Iterations 0
GAMG:  Solving for p, Initial residual = 9.404488e-08, Final residual = 9.404488e-08, No Iterations 0
time step continuity errors : sum local = 6.798495e-08, global = 1.826742e-09, cumulative = 3.704008e-07
DILUPBiCGStab:  Solving for omega, Initial residual = 9.521761e-07, Final residual = 9.521761e-07, No Iterations 0
DILUPBiCGStab:  Solving for k, Initial residual = 1.013322e-06, Final residual = 3.485239e-08, No Iterations 1
ExecutionTime = 392.52 s  ClockTime = 394 s

forceCoeffs forceCoefficientMonitorOnUpperLowerTipInDefault write:
    Coefficient	Total	Pressure	Viscous	Internal
    Cd:	0.008572047	0.006569089	0.002002958	0
    Cd(f):	0.004286023	0.003284544	0.001001479	0
    Cd(r):	0.004286023	0.003284544	0.001001479	0
    Cl:	-6.365504e-06	8.585806e-09	-6.37409e-06	0
    Cl(f):	-2.355017e-07	2.963115e-06	-3.198616e-06	0
    Cl(r):	-6.130002e-06	-2.954529e-06	-3.175473e-06	0
    CmPitch:	2.94725e-06	2.958822e-06	-1.157151e-08	0
    CmRoll:	-1.957093e-23	3.025544e-24	-2.259648e-23	0
    CmYaw:	1.740523e-20	1.739674e-20	8.492728e-24	0
    Cs:	1.429924e-20	1.890448e-23	1.428033e-20	0
    Cs(f):	2.455485e-20	1.740619e-20	7.148659e-21	0
    Cs(r):	-1.025561e-20	-1.738728e-20	7.131674e-21	0

    writing force and moment coefficient files.

Time = 1291

DILUPBiCGStab:  Solving for Ux, Initial residual = 3.35988e-07, Final residual = 5.272074e-08, No Iterations 1
DILUPBiCGStab:  Solving for Uz, Initial residual = 1.091691e-06, Final residual = 8.188234e-08, No Iterations 1
GAMG:  Solving for p, Initial residual = 1.029962e-07, Final residual = 9.189887e-08, No Iterations 1
GAMG:  Solving for p, Initial residual = 9.242478e-08, Final residual = 9.242478e-08, No Iterations 0
GAMG:  Solving for p, Initial residual = 9.242478e-08, Final residual = 9.242478e-08, No Iterations 0
time step continuity errors : sum local = 6.681381e-08, global = -1.826207e-09, cumulative = 3.685746e-07
DILUPBiCGStab:  Solving for omega, Initial residual = 9.521835e-07, Final residual = 9.521835e-07, No Iterations 0
DILUPBiCGStab:  Solving for k, Initial residual = 1.001229e-06, Final residual = 3.571452e-08, No Iterations 1
ExecutionTime = 392.61 s  ClockTime = 394 s

forceCoeffs forceCoefficientMonitorOnUpperLowerTipInDefault write:
    Coefficient	Total	Pressure	Viscous	Internal
    Cd:	0.008572048	0.006569089	0.00200296	0
    Cd(f):	0.004286024	0.003284544	0.00100148	0
    Cd(r):	0.004286024	0.003284544	0.00100148	0
    Cl:	-6.363681e-06	8.588112e-09	-6.37227e-06	0
    Cl(f):	-2.349869e-07	2.962717e-06	-3.197704e-06	0
    Cl(r):	-6.128695e-06	-2.954129e-06	-3.174565e-06	0
    CmPitch:	2.946854e-06	2.958423e-06	-1.156937e-08	0
    CmRoll:	-1.957095e-23	3.025544e-24	-2.259649e-23	0
    CmYaw:	1.740523e-20	1.739673e-20	8.492832e-24	0
    Cs:	1.429923e-20	1.89046e-23	1.428033e-20	0
    Cs(f):	2.455484e-20	1.740619e-20	7.148658e-21	0
    Cs(r):	-1.025561e-20	-1.738728e-20	7.131672e-21	0

    writing force and moment coefficient files.

Time = 1292

DILUPBiCGStab:  Solving for Ux, Initial residual = 3.351964e-07, Final residual = 5.193413e-08, No Iterations 1
DILUPBiCGStab:  Solving for Uz, Initial residual = 1.091109e-06, Final residual = 8.268613e-08, No Iterations 1
GAMG:  Solving for p, Initial residual = 9.327616e-08, Final residual = 9.327616e-08, No Iterations 0
GAMG:  Solving for p, Initial residual = 9.327616e-08, Final residual = 9.327616e-08, No Iterations 0
GAMG:  Solving for p, Initial residual = 9.327616e-08, Final residual = 9.327616e-08, No Iterations 0
time step continuity errors : sum local = 6.742926e-08, global = 9.525651e-10, cumulative = 3.695272e-07
DILUPBiCGStab:  Solving for omega, Initial residual = 9.521913e-07, Final residual = 9.521913e-07, No Iterations 0
DILUPBiCGStab:  Solving for k, Initial residual = 9.893097e-07, Final residual = 9.893097e-07, No Iterations 0
ExecutionTime = 392.7 s  ClockTime = 394 s

forceCoeffs forceCoefficientMonitorOnUpperLowerTipInDefault write:
    Coefficient	Total	Pressure	Viscous	Internal
    Cd:	0.008572049	0.006569089	0.00200296	0
    Cd(f):	0.004286024	0.003284545	0.00100148	0
    Cd(r):	0.004286024	0.003284545	0.00100148	0
    Cl:	-6.36368e-06	8.58936e-09	-6.37227e-06	0
    Cl(f):	-2.349843e-07	2.962718e-06	-3.197702e-06	0
    Cl(r):	-6.128696e-06	-2.954129e-06	-3.174567e-06	0
    CmPitch:	2.946856e-06	2.958423e-06	-1.156744e-08	0
    CmRoll:	-1.957094e-23	3.025544e-24	-2.259648e-23	0
    CmYaw:	1.740523e-20	1.739673e-20	8.492738e-24	0
    Cs:	1.429923e-20	1.89045e-23	1.428033e-20	0
    Cs(f):	2.455484e-20	1.740619e-20	7.148658e-21	0
    Cs(r):	-1.025561e-20	-1.738728e-20	7.131672e-21	0

    writing force and moment coefficient files.

Time = 1293

DILUPBiCGStab:  Solving for Ux, Initial residual = 3.302236e-07, Final residual = 5.136441e-08, No Iterations 1
DILUPBiCGStab:  Solving for Uz, Initial residual = 1.070528e-06, Final residual = 8.094698e-08, No Iterations 1
GAMG:  Solving for p, Initial residual = 1.000483e-07, Final residual = 8.421847e-08, No Iterations 1
GAMG:  Solving for p, Initial residual = 8.455804e-08, Final residual = 8.455804e-08, No Iterations 0
GAMG:  Solving for p, Initial residual = 8.455804e-08, Final residual = 8.455804e-08, No Iterations 0
time step continuity errors : sum local = 6.112697e-08, global = 2.529439e-10, cumulative = 3.697801e-07
DILUPBiCGStab:  Solving for omega, Initial residual = 9.521881e-07, Final residual = 9.521881e-07, No Iterations 0
DILUPBiCGStab:  Solving for k, Initial residual = 9.894383e-07, Final residual = 9.894383e-07, No Iterations 0
ExecutionTime = 392.79 s  ClockTime = 394 s

forceCoeffs forceCoefficientMonitorOnUpperLowerTipInDefault write:
    Coefficient	Total	Pressure	Viscous	Internal
    Cd:	0.00857205	0.006569089	0.002002961	0
    Cd(f):	0.004286025	0.003284545	0.00100148	0
    Cd(r):	0.004286025	0.003284545	0.00100148	0
    Cl:	-6.362483e-06	8.589998e-09	-6.371073e-06	0
    Cl(f):	-2.342731e-07	2.96283e-06	-3.197103e-06	0
    Cl(r):	-6.12821e-06	-2.95424e-06	-3.173971e-06	0
    CmPitch:	2.946969e-06	2.958535e-06	-1.156602e-08	0
    CmRoll:	-1.957095e-23	3.025543e-24	-2.259649e-23	0
    CmYaw:	1.740522e-20	1.739673e-20	8.492824e-24	0
    Cs:	1.429923e-20	1.890464e-23	1.428033e-20	0
    Cs(f):	2.455484e-20	1.740618e-20	7.148657e-21	0
    Cs(r):	-1.025561e-20	-1.738728e-20	7.131671e-21	0

    writing force and moment coefficient files.

Time = 1294

DILUPBiCGStab:  Solving for Ux, Initial residual = 3.259854e-07, Final residual = 5.087543e-08, No Iterations 1
DILUPBiCGStab:  Solving for Uz, Initial residual = 1.070355e-06, Final residual = 8.144109e-08, No Iterations 1
GAMG:  Solving for p, Initial residual = 8.981226e-08, Final residual = 8.981226e-08, No Iterations 0
GAMG:  Solving for p, Initial residual = 8.981226e-08, Final residual = 8.981226e-08, No Iterations 0
GAMG:  Solving for p, Initial residual = 8.981226e-08, Final residual = 8.981226e-08, No Iterations 0
time step continuity errors : sum local = 6.492523e-08, global = 2.464236e-09, cumulative = 3.722444e-07
DILUPBiCGStab:  Solving for omega, Initial residual = 9.521861e-07, Final residual = 9.521861e-07, No Iterations 0
DILUPBiCGStab:  Solving for k, Initial residual = 9.89552e-07, Final residual = 9.89552e-07, No Iterations 0
ExecutionTime = 392.87 s  ClockTime = 395 s

forceCoeffs forceCoefficientMonitorOnUpperLowerTipInDefault write:
    Coefficient	Total	Pressure	Viscous	Internal
    Cd:	0.00857205	0.00656909	0.002002961	0
    Cd(f):	0.004286025	0.003284545	0.00100148	0
    Cd(r):	0.004286025	0.003284545	0.00100148	0
    Cl:	-6.362483e-06	8.590831e-09	-6.371073e-06	0
    Cl(f):	-2.342716e-07	2.96283e-06	-3.197102e-06	0
    Cl(r):	-6.128211e-06	-2.954239e-06	-3.173972e-06	0
    CmPitch:	2.94697e-06	2.958535e-06	-1.156493e-08	0
    CmRoll:	-1.957094e-23	3.025543e-24	-2.259649e-23	0
    CmYaw:	1.740522e-20	1.739673e-20	8.492779e-24	0
    Cs:	1.429923e-20	1.890456e-23	1.428033e-20	0
    Cs(f):	2.455484e-20	1.740618e-20	7.148657e-21	0
    Cs(r):	-1.025561e-20	-1.738728e-20	7.131671e-21	0

    writing force and moment coefficient files.

Time = 1295

DILUPBiCGStab:  Solving for Ux, Initial residual = 3.21189e-07, Final residual = 5.031192e-08, No Iterations 1
DILUPBiCGStab:  Solving for Uz, Initial residual = 1.050213e-06, Final residual = 7.972855e-08, No Iterations 1
GAMG:  Solving for p, Initial residual = 9.561344e-08, Final residual = 9.561344e-08, No Iterations 0
GAMG:  Solving for p, Initial residual = 9.561344e-08, Final residual = 9.561344e-08, No Iterations 0
GAMG:  Solving for p, Initial residual = 9.561344e-08, Final residual = 9.561344e-08, No Iterations 0
time step continuity errors : sum local = 6.91189e-08, global = 4.248272e-09, cumulative = 3.764927e-07
DILUPBiCGStab:  Solving for omega, Initial residual = 9.521845e-07, Final residual = 9.521845e-07, No Iterations 0
DILUPBiCGStab:  Solving for k, Initial residual = 9.896702e-07, Final residual = 9.896702e-07, No Iterations 0
ExecutionTime = 392.96 s  ClockTime = 395 s

forceCoeffs forceCoefficientMonitorOnUpperLowerTipInDefault write:
    Coefficient	Total	Pressure	Viscous	Internal
    Cd:	0.008572051	0.00656909	0.002002961	0
    Cd(f):	0.004286025	0.003284545	0.00100148	0
    Cd(r):	0.004286025	0.003284545	0.00100148	0
    Cl:	-6.362483e-06	8.590547e-09	-6.371073e-06	0
    Cl(f):	-2.34271e-07	2.96283e-06	-3.197101e-06	0
    Cl(r):	-6.128212e-06	-2.954239e-06	-3.173972e-06	0
    CmPitch:	2.94697e-06	2.958535e-06	-1.156419e-08	0
    CmRoll:	-1.957094e-23	3.025543e-24	-2.259649e-23	0
    CmYaw:	1.740522e-20	1.739673e-20	8.492791e-24	0
    Cs:	1.429923e-20	1.890457e-23	1.428033e-20	0
    Cs(f):	2.455484e-20	1.740618e-20	7.148657e-21	0
    Cs(r):	-1.025561e-20	-1.738728e-20	7.131671e-21	0

    writing force and moment coefficient files.

Time = 1296

DILUPBiCGStab:  Solving for Ux, Initial residual = 3.16658e-07, Final residual = 4.979151e-08, No Iterations 1
DILUPBiCGStab:  Solving for Uz, Initial residual = 1.03031e-06, Final residual = 7.799349e-08, No Iterations 1
GAMG:  Solving for p, Initial residual = 1.010058e-07, Final residual = 7.896789e-08, No Iterations 1
GAMG:  Solving for p, Initial residual = 7.927294e-08, Final residual = 7.927294e-08, No Iterations 0
GAMG:  Solving for p, Initial residual = 7.927294e-08, Final residual = 7.927294e-08, No Iterations 0
time step continuity errors : sum local = 5.730637e-08, global = 9.823986e-10, cumulative = 3.774751e-07
DILUPBiCGStab:  Solving for omega, Initial residual = 9.521826e-07, Final residual = 9.521826e-07, No Iterations 0
DILUPBiCGStab:  Solving for k, Initial residual = 9.89809e-07, Final residual = 9.89809e-07, No Iterations 0
ExecutionTime = 393.05 s  ClockTime = 395 s

forceCoeffs forceCoefficientMonitorOnUpperLowerTipInDefault write:
    Coefficient	Total	Pressure	Viscous	Internal
    Cd:	0.008572051	0.00656909	0.002002961	0
    Cd(f):	0.004286026	0.003284545	0.001001481	0
    Cd(r):	0.004286026	0.003284545	0.001001481	0
    Cl:	-6.36052e-06	8.588264e-09	-6.369108e-06	0
    Cl(f):	-2.336289e-07	2.962489e-06	-3.196118e-06	0
    Cl(r):	-6.126891e-06	-2.953901e-06	-3.17299e-06	0
    CmPitch:	2.946631e-06	2.958195e-06	-1.156363e-08	0
    CmRoll:	-1.957095e-23	3.025543e-24	-2.259649e-23	0
    CmYaw:	1.740522e-20	1.739673e-20	8.49284e-24	0
    Cs:	1.429923e-20	1.890469e-23	1.428033e-20	0
    Cs(f):	2.455484e-20	1.740618e-20	7.148657e-21	0
    Cs(r):	-1.025561e-20	-1.738728e-20	7.131671e-21	0

    writing force and moment coefficient files.

Time = 1297

DILUPBiCGStab:  Solving for Ux, Initial residual = 3.128408e-07, Final residual = 4.937133e-08, No Iterations 1
DILUPBiCGStab:  Solving for Uz, Initial residual = 1.026072e-06, Final residual = 7.746294e-08, No Iterations 1
GAMG:  Solving for p, Initial residual = 8.80752e-08, Final residual = 8.80752e-08, No Iterations 0
GAMG:  Solving for p, Initial residual = 8.80752e-08, Final residual = 8.80752e-08, No Iterations 0
GAMG:  Solving for p, Initial residual = 8.80752e-08, Final residual = 8.80752e-08, No Iterations 0
time step continuity errors : sum local = 6.366953e-08, global = 4.634583e-09, cumulative = 3.821096e-07
DILUPBiCGStab:  Solving for omega, Initial residual = 9.521816e-07, Final residual = 9.521816e-07, No Iterations 0
DILUPBiCGStab:  Solving for k, Initial residual = 9.899244e-07, Final residual = 9.899244e-07, No Iterations 0
ExecutionTime = 393.14 s  ClockTime = 395 s

forceCoeffs forceCoefficientMonitorOnUpperLowerTipInDefault write:
    Coefficient	Total	Pressure	Viscous	Internal
    Cd:	0.008572051	0.00656909	0.002002961	0
    Cd(f):	0.004286026	0.003284545	0.001001481	0
    Cd(r):	0.004286026	0.003284545	0.001001481	0
    Cl:	-6.36052e-06	8.588465e-09	-6.369108e-06	0
    Cl(f):	-2.336282e-07	2.962489e-06	-3.196117e-06	0
    Cl(r):	-6.126892e-06	-2.9539e-06	-3.172991e-06	0
    CmPitch:	2.946632e-06	2.958195e-06	-1.1563e-08	0
    CmRoll:	-1.957094e-23	3.025543e-24	-2.259649e-23	0
    CmYaw:	1.740522e-20	1.739673e-20	8.492837e-24	0
    Cs:	1.429923e-20	1.890465e-23	1.428033e-20	0
    Cs(f):	2.455484e-20	1.740618e-20	7.148657e-21	0
    Cs(r):	-1.025561e-20	-1.738728e-20	7.131671e-21	0

    writing force and moment coefficient files.

Time = 1298

DILUPBiCGStab:  Solving for Ux, Initial residual = 3.082639e-07, Final residual = 4.88417e-08, No Iterations 1
DILUPBiCGStab:  Solving for Uz, Initial residual = 1.006065e-06, Final residual = 7.556575e-08, No Iterations 1
GAMG:  Solving for p, Initial residual = 9.576288e-08, Final residual = 9.576288e-08, No Iterations 0
GAMG:  Solving for p, Initial residual = 9.576288e-08, Final residual = 9.576288e-08, No Iterations 0
GAMG:  Solving for p, Initial residual = 9.576288e-08, Final residual = 9.576288e-08, No Iterations 0
time step continuity errors : sum local = 6.922694e-08, global = 6.403319e-09, cumulative = 3.88513e-07
DILUPBiCGStab:  Solving for omega, Initial residual = 9.521806e-07, Final residual = 9.521806e-07, No Iterations 0
DILUPBiCGStab:  Solving for k, Initial residual = 9.900475e-07, Final residual = 9.900475e-07, No Iterations 0
ExecutionTime = 393.22 s  ClockTime = 395 s

forceCoeffs forceCoefficientMonitorOnUpperLowerTipInDefault write:
    Coefficient	Total	Pressure	Viscous	Internal
    Cd:	0.008572051	0.00656909	0.002002961	0
    Cd(f):	0.004286026	0.003284545	0.001001481	0
    Cd(r):	0.004286026	0.003284545	0.001001481	0
    Cl:	-6.36052e-06	8.588247e-09	-6.369108e-06	0
    Cl(f):	-2.336279e-07	2.962489e-06	-3.196117e-06	0
    Cl(r):	-6.126892e-06	-2.953901e-06	-3.172992e-06	0
    CmPitch:	2.946632e-06	2.958195e-06	-1.156253e-08	0
    CmRoll:	-1.957094e-23	3.025543e-24	-2.259649e-23	0
    CmYaw:	1.740522e-20	1.739673e-20	8.492852e-24	0
    Cs:	1.429923e-20	1.890466e-23	1.428033e-20	0
    Cs(f):	2.455484e-20	1.740618e-20	7.148657e-21	0
    Cs(r):	-1.025561e-20	-1.738728e-20	7.131671e-21	0

    writing force and moment coefficient files.

Time = 1299

DILUPBiCGStab:  Solving for Ux, Initial residual = 3.039485e-07, Final residual = 4.834338e-08, No Iterations 1
DILUPBiCGStab:  Solving for Uz, Initial residual = 9.864362e-07, Final residual = 7.371312e-08, No Iterations 1
GAMG:  Solving for p, Initial residual = 1.029244e-07, Final residual = 9.537539e-08, No Iterations 1
GAMG:  Solving for p, Initial residual = 9.618392e-08, Final residual = 9.618392e-08, No Iterations 0
GAMG:  Solving for p, Initial residual = 9.618392e-08, Final residual = 9.618392e-08, No Iterations 0
time step continuity errors : sum local = 6.953134e-08, global = -1.444095e-09, cumulative = 3.870689e-07
DILUPBiCGStab:  Solving for omega, Initial residual = 9.521795e-07, Final residual = 9.521795e-07, No Iterations 0
DILUPBiCGStab:  Solving for k, Initial residual = 9.902035e-07, Final residual = 9.902035e-07, No Iterations 0
ExecutionTime = 393.31 s  ClockTime = 395 s


SIMPLE solution converged in 1299 iterations

forceCoeffs forceCoefficientMonitorOnUpperLowerTipInDefault write:
    Coefficient	Total	Pressure	Viscous	Internal
    Cd:	0.008572052	0.00656909	0.002002962	0
    Cd(f):	0.004286026	0.003284545	0.001001481	0
    Cd(r):	0.004286026	0.003284545	0.001001481	0
    Cl:	-6.358265e-06	8.588202e-09	-6.366853e-06	0
    Cl(f):	-2.320981e-07	2.962891e-06	-3.194989e-06	0
    Cl(r):	-6.126167e-06	-2.954302e-06	-3.171865e-06	0
    CmPitch:	2.947034e-06	2.958596e-06	-1.1562e-08	0
    CmRoll:	-1.957095e-23	3.025543e-24	-2.25965e-23	0
    CmYaw:	1.740522e-20	1.739673e-20	8.492838e-24	0
    Cs:	1.429923e-20	1.890485e-23	1.428033e-20	0
    Cs(f):	2.455484e-20	1.740618e-20	7.148656e-21	0
    Cs(r):	-1.025561e-20	-1.738728e-20	7.131671e-21	0

    writing force and moment coefficient files.

End

Finalising parallel run
